<?xml version="1.0" encoding="UTF-8"?>

<!-- generated on 2025-07-06 16:22:55.566653 by randomTrips.py v1_23_1+0000-676720d13f6
<configuration>
    <net-file value="rg.net.xml"/>
    <output-trip-file value="rg.rou.xml"/>
    <route-file value="rg.trips.xml"/>
    <trip-attributes value="departLane='best' departSpeed='max' departPos='random'"/>
    <vehicle-class value="passenger"/>
    <validate value="True"/>
    <end value="1000.0"/>
</configuration>
-->

<routes xmlns:xsi="http://www.w3.org/2001/XMLSchema-instance" xsi:noNamespaceSchemaLocation="http://sumo.dlr.de/xsd/routes_file.xsd">
    <vType id="passenger" vClass="passenger"/>
    <trip id="0" depart="0.00" from="24584383#2" to="-1072963716#0" departLane='best' departSpeed='max' departPos='random' type="passenger"/>
    <trip id="1" depart="1.00" from="-371342951#2" to="-24584503#1" departLane='best' departSpeed='max' departPos='random' type="passenger"/>
    <trip id="2" depart="2.00" from="24584504#2" to="24584414#0" departLane='best' departSpeed='max' departPos='random' type="passenger"/>
    <trip id="3" depart="3.00" from="700305760#0" to="-1271156421#2" departLane='best' departSpeed='max' departPos='random' type="passenger"/>
    <trip id="4" depart="4.00" from="1073010466" to="-1072978656#0" departLane='best' departSpeed='max' departPos='random' type="passenger"/>
    <trip id="5" depart="5.00" from="-24584418#3" to="138947059#1" departLane='best' departSpeed='max' departPos='random' type="passenger"/>
    <trip id="6" depart="6.00" from="-1072963716#0" to="-24584420#0" departLane='best' departSpeed='max' departPos='random' type="passenger"/>
    <trip id="7" depart="7.00" from="24584385#0" to="24583487#11" departLane='best' departSpeed='max' departPos='random' type="passenger"/>
    <trip id="8" depart="8.00" from="-24584420#1" to="24584377#2" departLane='best' departSpeed='max' departPos='random' type="passenger"/>
    <trip id="9" depart="9.00" from="48964551" to="-1060463406#1" departLane='best' departSpeed='max' departPos='random' type="passenger"/>
    <trip id="10" depart="10.00" from="447141151#7" to="24584420#1" departLane='best' departSpeed='max' departPos='random' type="passenger"/>
    <trip id="11" depart="11.00" from="-80926770" to="-24584383#4" departLane='best' departSpeed='max' departPos='random' type="passenger"/>
    <trip id="12" depart="12.00" from="80926764#4" to="-80926781#1" departLane='best' departSpeed='max' departPos='random' type="passenger"/>
    <trip id="13" depart="13.00" from="-1250154743#0" to="-164786644#0" departLane='best' departSpeed='max' departPos='random' type="passenger"/>
    <trip id="14" depart="14.00" from="611866595#0" to="24584378#7" departLane='best' departSpeed='max' departPos='random' type="passenger"/>
    <trip id="15" depart="15.00" from="447141155#0" to="24584503#2" departLane='best' departSpeed='max' departPos='random' type="passenger"/>
    <trip id="16" depart="16.00" from="24583332#4" to="80926778#10" departLane='best' departSpeed='max' departPos='random' type="passenger"/>
    <trip id="17" depart="17.00" from="1066625119#0" to="24583487#8" departLane='best' departSpeed='max' departPos='random' type="passenger"/>
    <trip id="18" depart="18.00" from="581245359" to="24584380#9" departLane='best' departSpeed='max' departPos='random' type="passenger"/>
    <trip id="19" depart="19.00" from="665150699#0" to="24584375#10" departLane='best' departSpeed='max' departPos='random' type="passenger"/>
    <trip id="20" depart="20.00" from="24584420#6" to="-1122026496#0" departLane='best' departSpeed='max' departPos='random' type="passenger"/>
    <trip id="21" depart="21.00" from="-24584420#8" to="-686834805#0" departLane='best' departSpeed='max' departPos='random' type="passenger"/>
    <trip id="22" depart="22.00" from="-1122257058" to="-24584507#1" departLane='best' departSpeed='max' departPos='random' type="passenger"/>
    <trip id="23" depart="23.00" from="-1271156413#1" to="-675478334#4" departLane='best' departSpeed='max' departPos='random' type="passenger"/>
    <trip id="24" depart="24.00" from="24584381#8" to="1066625120#4" departLane='best' departSpeed='max' departPos='random' type="passenger"/>
    <trip id="25" depart="25.00" from="1064518284" to="-24584421#0" departLane='best' departSpeed='max' departPos='random' type="passenger"/>
    <trip id="26" depart="26.00" from="-24584512#0" to="752137329#1" departLane='best' departSpeed='max' departPos='random' type="passenger"/>
    <trip id="27" depart="27.00" from="24584384#5" to="24584380#1" departLane='best' departSpeed='max' departPos='random' type="passenger"/>
    <trip id="28" depart="28.00" from="-24584383#0" to="24584503#1" departLane='best' departSpeed='max' departPos='random' type="passenger"/>
    <trip id="29" depart="29.00" from="-24584381#17" to="1072960945#1" departLane='best' departSpeed='max' departPos='random' type="passenger"/>
    <trip id="30" depart="30.00" from="994825990#1" to="24584383#4" departLane='best' departSpeed='max' departPos='random' type="passenger"/>
    <trip id="31" depart="31.00" from="24583488#3" to="24584416#1" departLane='best' departSpeed='max' departPos='random' type="passenger"/>
    <trip id="32" depart="32.00" from="611866592#1" to="44188368#1" departLane='best' departSpeed='max' departPos='random' type="passenger"/>
    <trip id="33" depart="33.00" from="-24584420#9" to="-1072978656#2" departLane='best' departSpeed='max' departPos='random' type="passenger"/>
    <trip id="34" depart="34.00" from="-686834805#5" to="-612734122" departLane='best' departSpeed='max' departPos='random' type="passenger"/>
    <trip id="35" depart="35.00" from="-24584416#3" to="763520419#0" departLane='best' departSpeed='max' departPos='random' type="passenger"/>
    <trip id="36" depart="36.00" from="686685084#0" to="-80926768#2" departLane='best' departSpeed='max' departPos='random' type="passenger"/>
    <trip id="37" depart="37.00" from="24584388#1" to="1072978660#1" departLane='best' departSpeed='max' departPos='random' type="passenger"/>
    <trip id="38" depart="38.00" from="717907817#0" to="1183653757#1" departLane='best' departSpeed='max' departPos='random' type="passenger"/>
    <trip id="39" depart="39.00" from="-24584511#8" to="-24584512#0" departLane='best' departSpeed='max' departPos='random' type="passenger"/>
    <trip id="40" depart="40.00" from="24583489#1" to="-44277694#4" departLane='best' departSpeed='max' departPos='random' type="passenger"/>
    <trip id="41" depart="41.00" from="24584375#6" to="714990513#2" departLane='best' departSpeed='max' departPos='random' type="passenger"/>
    <trip id="42" depart="42.00" from="1072960944#1" to="-24584424#5" departLane='best' departSpeed='max' departPos='random' type="passenger"/>
    <trip id="43" depart="43.00" from="997761553" to="164786644#3" departLane='best' departSpeed='max' departPos='random' type="passenger"/>
    <trip id="44" depart="44.00" from="-1183653758" to="-1122028504#0" departLane='best' departSpeed='max' departPos='random' type="passenger"/>
    <trip id="45" depart="45.00" from="-1271156421#4" to="24584381#17" departLane='best' departSpeed='max' departPos='random' type="passenger"/>
    <trip id="46" depart="46.00" from="447141138#0" to="1122215528#0" departLane='best' departSpeed='max' departPos='random' type="passenger"/>
    <trip id="47" depart="47.00" from="-1122215537" to="1072960946#2" departLane='best' departSpeed='max' departPos='random' type="passenger"/>
    <trip id="48" depart="48.00" from="997761552#1" to="24583327#8" departLane='best' departSpeed='max' departPos='random' type="passenger"/>
    <trip id="49" depart="49.00" from="80926778#1" to="612734126#2" departLane='best' departSpeed='max' departPos='random' type="passenger"/>
    <trip id="50" depart="50.00" from="-1072960938" to="24584424#4" departLane='best' departSpeed='max' departPos='random' type="passenger"/>
    <trip id="51" depart="51.00" from="24584415#0" to="24583332#4" departLane='best' departSpeed='max' departPos='random' type="passenger"/>
    <trip id="52" depart="52.00" from="-24584512#0" to="24584384#0" departLane='best' departSpeed='max' departPos='random' type="passenger"/>
    <trip id="53" depart="53.00" from="-1271156421#5" to="1122220358#0" departLane='best' departSpeed='max' departPos='random' type="passenger"/>
    <trip id="54" depart="54.00" from="1122230047#1" to="80678182#2" departLane='best' departSpeed='max' departPos='random' type="passenger"/>
    <trip id="55" depart="55.00" from="686685084#0" to="-581245361" departLane='best' departSpeed='max' departPos='random' type="passenger"/>
    <trip id="56" depart="56.00" from="1292286060#0" to="-24584409#3" departLane='best' departSpeed='max' departPos='random' type="passenger"/>
    <trip id="57" depart="57.00" from="717907814#7" to="675478334#5" departLane='best' departSpeed='max' departPos='random' type="passenger"/>
    <trip id="58" depart="58.00" from="-675478334#5" to="24584383#3" departLane='best' departSpeed='max' departPos='random' type="passenger"/>
    <trip id="59" depart="59.00" from="24584379" to="-24584383#2" departLane='best' departSpeed='max' departPos='random' type="passenger"/>
    <trip id="60" depart="60.00" from="278577243#0" to="24583332#7" departLane='best' departSpeed='max' departPos='random' type="passenger"/>
    <trip id="61" depart="61.00" from="44188368#2" to="24583327#9" departLane='best' departSpeed='max' departPos='random' type="passenger"/>
    <trip id="62" depart="62.00" from="-1060463404#1" to="-80926778#1" departLane='best' departSpeed='max' departPos='random' type="passenger"/>
    <trip id="63" depart="63.00" from="-1072960944#1" to="749606303#1" departLane='best' departSpeed='max' departPos='random' type="passenger"/>
    <trip id="64" depart="64.00" from="686696454#0" to="581245363#0" departLane='best' departSpeed='max' departPos='random' type="passenger"/>
    <trip id="65" depart="65.00" from="-686685084#2" to="-1122220361" departLane='best' departSpeed='max' departPos='random' type="passenger"/>
    <trip id="66" depart="66.00" from="686685084#2" to="778199266#3" departLane='best' departSpeed='max' departPos='random' type="passenger"/>
    <trip id="67" depart="67.00" from="-1183653755" to="1271156421#1" departLane='best' departSpeed='max' departPos='random' type="passenger"/>
    <trip id="68" depart="68.00" from="-1122220358#1" to="278577243#1" departLane='best' departSpeed='max' departPos='random' type="passenger"/>
    <trip id="69" depart="69.00" from="278577243#3" to="-24583489#5" departLane='best' departSpeed='max' departPos='random' type="passenger"/>
    <trip id="70" depart="70.00" from="1271156412#0" to="24583487#6" departLane='best' departSpeed='max' departPos='random' type="passenger"/>
    <trip id="71" depart="71.00" from="-24584511#8" to="675478334#8" departLane='best' departSpeed='max' departPos='random' type="passenger"/>
    <trip id="72" depart="72.00" from="111695524#0" to="-24584422#0" departLane='best' departSpeed='max' departPos='random' type="passenger"/>
    <trip id="73" depart="73.00" from="24583335#0" to="24584503#2" departLane='best' departSpeed='max' departPos='random' type="passenger"/>
    <trip id="74" depart="74.00" from="-24584412" to="-80926764#5" departLane='best' departSpeed='max' departPos='random' type="passenger"/>
    <trip id="75" depart="75.00" from="997761552#0" to="24584385#2" departLane='best' departSpeed='max' departPos='random' type="passenger"/>
    <trip id="76" depart="76.00" from="1122028504#1" to="24583321#0" departLane='best' departSpeed='max' departPos='random' type="passenger"/>
    <trip id="77" depart="77.00" from="-164786644#3" to="-24584503#2" departLane='best' departSpeed='max' departPos='random' type="passenger"/>
    <trip id="78" depart="78.00" from="-80926768#4" to="24584377#2" departLane='best' departSpeed='max' departPos='random' type="passenger"/>
    <trip id="79" depart="79.00" from="-24584421#0" to="-24584426#0" departLane='best' departSpeed='max' departPos='random' type="passenger"/>
    <trip id="80" depart="80.00" from="-1122220362#0" to="24584381#4" departLane='best' departSpeed='max' departPos='random' type="passenger"/>
    <trip id="81" depart="81.00" from="-24584420#9" to="717907807#3" departLane='best' departSpeed='max' departPos='random' type="passenger"/>
    <trip id="82" depart="82.00" from="612734126#1" to="-1183653757#0" departLane='best' departSpeed='max' departPos='random' type="passenger"/>
    <trip id="83" depart="83.00" from="-24584424#3" to="24584397" departLane='best' departSpeed='max' departPos='random' type="passenger"/>
    <trip id="84" depart="84.00" from="-24584417#1" to="-24583489#9" departLane='best' departSpeed='max' departPos='random' type="passenger"/>
    <trip id="85" depart="85.00" from="758753881#1" to="24583489#9" departLane='best' departSpeed='max' departPos='random' type="passenger"/>
    <trip id="86" depart="86.00" from="1250154743#0" to="44277694#0" departLane='best' departSpeed='max' departPos='random' type="passenger"/>
    <trip id="87" depart="87.00" from="447141155#1" to="-24584416#3" departLane='best' departSpeed='max' departPos='random' type="passenger"/>
    <trip id="88" depart="88.00" from="-1271156412#2" to="1122215537" departLane='best' departSpeed='max' departPos='random' type="passenger"/>
    <trip id="89" depart="89.00" from="24584503#0" to="24584410" departLane='best' departSpeed='max' departPos='random' type="passenger"/>
    <trip id="90" depart="90.00" from="80926781#2" to="-164786644#1" departLane='best' departSpeed='max' departPos='random' type="passenger"/>
    <trip id="91" depart="91.00" from="1072960946#0" to="-80926782" departLane='best' departSpeed='max' departPos='random' type="passenger"/>
    <trip id="92" depart="92.00" from="665150699#0" to="-24584512#2" departLane='best' departSpeed='max' departPos='random' type="passenger"/>
    <trip id="93" depart="93.00" from="-24584392#1" to="1122270718" departLane='best' departSpeed='max' departPos='random' type="passenger"/>
    <trip id="94" depart="94.00" from="1073010466" to="-675478334#5" departLane='best' departSpeed='max' departPos='random' type="passenger"/>
    <trip id="95" depart="95.00" from="-24584504#1" to="749606293" departLane='best' departSpeed='max' departPos='random' type="passenger"/>
    <trip id="96" depart="96.00" from="24583487#6" to="-1122039119" departLane='best' departSpeed='max' departPos='random' type="passenger"/>
    <trip id="97" depart="97.00" from="80926774#1" to="749606302#2" departLane='best' departSpeed='max' departPos='random' type="passenger"/>
    <trip id="98" depart="98.00" from="611866595#1" to="-24584391#0" departLane='best' departSpeed='max' departPos='random' type="passenger"/>
    <trip id="99" depart="99.00" from="1271156420#1" to="-24584424#0" departLane='best' departSpeed='max' departPos='random' type="passenger"/>
    <trip id="100" depart="100.00" from="1072960945#1" to="-1122220362#0" departLane='best' departSpeed='max' departPos='random' type="passenger"/>
    <trip id="101" depart="101.00" from="1066625119#0" to="80926781#2" departLane='best' departSpeed='max' departPos='random' type="passenger"/>
    <trip id="102" depart="102.00" from="-24584511#8" to="44277692#2" departLane='best' departSpeed='max' departPos='random' type="passenger"/>
    <trip id="103" depart="103.00" from="1122230048" to="1122215528#1" departLane='best' departSpeed='max' departPos='random' type="passenger"/>
    <trip id="104" depart="104.00" from="80926764#4" to="997761552#0" departLane='best' departSpeed='max' departPos='random' type="passenger"/>
    <trip id="105" depart="105.00" from="24583488#1" to="24584424#2" departLane='best' departSpeed='max' departPos='random' type="passenger"/>
    <trip id="106" depart="106.00" from="-24584381#0" to="-686834805#7" departLane='best' departSpeed='max' departPos='random' type="passenger"/>
    <trip id="107" depart="107.00" from="80926774#1" to="24584375#3" departLane='best' departSpeed='max' departPos='random' type="passenger"/>
    <trip id="108" depart="108.00" from="24583487#1" to="24584511#5" departLane='best' departSpeed='max' departPos='random' type="passenger"/>
    <trip id="109" depart="109.00" from="1327208476#0" to="611866595#4" departLane='best' departSpeed='max' departPos='random' type="passenger"/>
    <trip id="110" depart="110.00" from="-24584381#12" to="80926764#5" departLane='best' departSpeed='max' departPos='random' type="passenger"/>
    <trip id="111" depart="111.00" from="-1122257058" to="-24584414#3" departLane='best' departSpeed='max' departPos='random' type="passenger"/>
    <trip id="112" depart="112.00" from="24584377#6" to="24584413" departLane='best' departSpeed='max' departPos='random' type="passenger"/>
    <trip id="113" depart="113.00" from="-24584424#1" to="-24583488#5" departLane='best' departSpeed='max' departPos='random' type="passenger"/>
    <trip id="114" depart="114.00" from="695576804#0" to="-24584512#0" departLane='best' departSpeed='max' departPos='random' type="passenger"/>
    <trip id="115" depart="115.00" from="24584377#5" to="24584381#0" departLane='best' departSpeed='max' departPos='random' type="passenger"/>
    <trip id="116" depart="116.00" from="1072978660#1" to="24584375#7" departLane='best' departSpeed='max' departPos='random' type="passenger"/>
    <trip id="117" depart="117.00" from="-24584414#1" to="24584424#0" departLane='best' departSpeed='max' departPos='random' type="passenger"/>
    <trip id="118" depart="118.00" from="-24584424#4" to="1072978660#1" departLane='best' departSpeed='max' departPos='random' type="passenger"/>
    <trip id="119" depart="119.00" from="24584409#1" to="-695576804#1" departLane='best' departSpeed='max' departPos='random' type="passenger"/>
    <trip id="120" depart="120.00" from="-686834805#5" to="24584511#8" departLane='best' departSpeed='max' departPos='random' type="passenger"/>
    <trip id="121" depart="121.00" from="-1122220362#1" to="1183653757#0" departLane='best' departSpeed='max' departPos='random' type="passenger"/>
    <trip id="122" depart="122.00" from="-1122220363" to="-24584422#1" departLane='best' departSpeed='max' departPos='random' type="passenger"/>
    <trip id="123" depart="123.00" from="-24584511#8" to="752137328#1" departLane='best' departSpeed='max' departPos='random' type="passenger"/>
    <trip id="124" depart="124.00" from="686834805#0" to="686685084#1" departLane='best' departSpeed='max' departPos='random' type="passenger"/>
    <trip id="125" depart="125.00" from="1064518284" to="-24584384#1" departLane='best' departSpeed='max' departPos='random' type="passenger"/>
    <trip id="126" depart="126.00" from="581245363#3" to="24584420#6" departLane='best' departSpeed='max' departPos='random' type="passenger"/>
    <trip id="127" depart="127.00" from="24584380#1" to="80926782" departLane='best' departSpeed='max' departPos='random' type="passenger"/>
    <trip id="128" depart="128.00" from="24584388#0" to="-1072954052#1" departLane='best' departSpeed='max' departPos='random' type="passenger"/>
    <trip id="129" depart="129.00" from="502579560" to="-695576804#1" departLane='best' departSpeed='max' departPos='random' type="passenger"/>
    <trip id="130" depart="130.00" from="24584392#1" to="758753881#1" departLane='best' departSpeed='max' departPos='random' type="passenger"/>
    <trip id="131" depart="131.00" from="-24583487#8" to="-24583488#1" departLane='best' departSpeed='max' departPos='random' type="passenger"/>
    <trip id="132" depart="132.00" from="-1271156421#1" to="24583487#9" departLane='best' departSpeed='max' departPos='random' type="passenger"/>
    <trip id="133" depart="133.00" from="-371342951#0" to="24584378#8" departLane='best' departSpeed='max' departPos='random' type="passenger"/>
    <trip id="134" depart="134.00" from="24584424#0" to="-24584420#4" departLane='best' departSpeed='max' departPos='random' type="passenger"/>
    <trip id="135" depart="135.00" from="24584381#7" to="-581245361" departLane='best' departSpeed='max' departPos='random' type="passenger"/>
    <trip id="136" depart="136.00" from="1271156421#1" to="717907807#3" departLane='best' departSpeed='max' departPos='random' type="passenger"/>
    <trip id="137" depart="137.00" from="611866593#1" to="-1292286060#0" departLane='best' departSpeed='max' departPos='random' type="passenger"/>
    <trip id="138" depart="138.00" from="111695524#0" to="-675478334#3" departLane='best' departSpeed='max' departPos='random' type="passenger"/>
    <trip id="139" depart="139.00" from="-1060463405#2" to="371342951#1" departLane='best' departSpeed='max' departPos='random' type="passenger"/>
    <trip id="140" depart="140.00" from="24584383#0" to="-44277694#3" departLane='best' departSpeed='max' departPos='random' type="passenger"/>
    <trip id="141" depart="141.00" from="24584509" to="24583487#8" departLane='best' departSpeed='max' departPos='random' type="passenger"/>
    <trip id="142" depart="142.00" from="111695524#5" to="-1072954052#2" departLane='best' departSpeed='max' departPos='random' type="passenger"/>
    <trip id="143" depart="143.00" from="-1122230046" to="686696454#2" departLane='best' departSpeed='max' departPos='random' type="passenger"/>
    <trip id="144" depart="144.00" from="717907807#4" to="24583487#12" departLane='best' departSpeed='max' departPos='random' type="passenger"/>
    <trip id="145" depart="145.00" from="581245363#4" to="24584375#6" departLane='best' departSpeed='max' departPos='random' type="passenger"/>
    <trip id="146" depart="146.00" from="-24583489#3" to="-24583489#3" departLane='best' departSpeed='max' departPos='random' type="passenger"/>
    <trip id="147" depart="147.00" from="-686685084#3" to="714990513#3" departLane='best' departSpeed='max' departPos='random' type="passenger"/>
    <trip id="148" depart="148.00" from="447141143#1" to="612734126#2" departLane='best' departSpeed='max' departPos='random' type="passenger"/>
    <trip id="149" depart="149.00" from="714990514#1" to="-24584421#0" departLane='best' departSpeed='max' departPos='random' type="passenger"/>
    <trip id="150" depart="150.00" from="-24584504#1" to="-24583487#1" departLane='best' departSpeed='max' departPos='random' type="passenger"/>
    <trip id="151" depart="151.00" from="1072963716#0" to="24584381#1" departLane='best' departSpeed='max' departPos='random' type="passenger"/>
    <trip id="152" depart="152.00" from="-24584381#0" to="749606304#0" departLane='best' departSpeed='max' departPos='random' type="passenger"/>
    <trip id="153" depart="153.00" from="675478334#1" to="80926778#4" departLane='best' departSpeed='max' departPos='random' type="passenger"/>
    <trip id="154" depart="154.00" from="48964552#0" to="686685084#3" departLane='best' departSpeed='max' departPos='random' type="passenger"/>
    <trip id="155" depart="155.00" from="-1072960946#3" to="24584505" departLane='best' departSpeed='max' departPos='random' type="passenger"/>
    <trip id="156" depart="156.00" from="-80926764#3" to="749606304#1" departLane='best' departSpeed='max' departPos='random' type="passenger"/>
    <trip id="157" depart="157.00" from="447141151#3" to="665150699#2" departLane='best' departSpeed='max' departPos='random' type="passenger"/>
    <trip id="158" depart="158.00" from="48964552#0" to="-611866592#2" departLane='best' departSpeed='max' departPos='random' type="passenger"/>
    <trip id="159" depart="159.00" from="44277694#3" to="-24583487#3" departLane='best' departSpeed='max' departPos='random' type="passenger"/>
    <trip id="160" depart="160.00" from="675478334#9" to="612734126#0" departLane='best' departSpeed='max' departPos='random' type="passenger"/>
    <trip id="161" depart="161.00" from="-24584420#3" to="48964552#4" departLane='best' departSpeed='max' departPos='random' type="passenger"/>
    <trip id="162" depart="162.00" from="1183653754#0" to="-80678182#2" departLane='best' departSpeed='max' departPos='random' type="passenger"/>
    <trip id="163" depart="163.00" from="447141143#1" to="-24584504#0" departLane='best' departSpeed='max' departPos='random' type="passenger"/>
    <trip id="164" depart="164.00" from="-1072960946#2" to="-24584417#1" departLane='best' departSpeed='max' departPos='random' type="passenger"/>
    <trip id="165" depart="165.00" from="-80678182#2" to="665150699#2" departLane='best' departSpeed='max' departPos='random' type="passenger"/>
    <trip id="166" depart="166.00" from="80926773#1" to="-675478334#5" departLane='best' departSpeed='max' departPos='random' type="passenger"/>
    <trip id="167" depart="167.00" from="24584383#4" to="1073010466" departLane='best' departSpeed='max' departPos='random' type="passenger"/>
    <trip id="168" depart="168.00" from="80926778#9" to="24583332#2" departLane='best' departSpeed='max' departPos='random' type="passenger"/>
    <trip id="169" depart="169.00" from="760536611#0" to="-24583488#1" departLane='best' departSpeed='max' departPos='random' type="passenger"/>
    <trip id="170" depart="170.00" from="80926778#0" to="-24584409#3" departLane='best' departSpeed='max' departPos='random' type="passenger"/>
    <trip id="171" depart="171.00" from="80926768#3" to="-611866592#1" departLane='best' departSpeed='max' departPos='random' type="passenger"/>
    <trip id="172" depart="172.00" from="-1271156421#3" to="1122220358#0" departLane='best' departSpeed='max' departPos='random' type="passenger"/>
    <trip id="173" depart="173.00" from="24584503#0" to="-80926768#0" departLane='best' departSpeed='max' departPos='random' type="passenger"/>
    <trip id="174" depart="174.00" from="24584378#7" to="23134746#0" departLane='best' departSpeed='max' departPos='random' type="passenger"/>
    <trip id="175" depart="175.00" from="1066625120#2" to="24584375#10" departLane='best' departSpeed='max' departPos='random' type="passenger"/>
    <trip id="176" depart="176.00" from="-24584510" to="24584421#1" departLane='best' departSpeed='max' departPos='random' type="passenger"/>
    <trip id="177" depart="177.00" from="-1060463405#0" to="749606302#1" departLane='best' departSpeed='max' departPos='random' type="passenger"/>
    <trip id="178" depart="178.00" from="24583332#7" to="24584424#3" departLane='best' departSpeed='max' departPos='random' type="passenger"/>
    <trip id="179" depart="179.00" from="24584509" to="24584409#1" departLane='best' departSpeed='max' departPos='random' type="passenger"/>
    <trip id="180" depart="180.00" from="1060463405#0" to="-1183653755" departLane='best' departSpeed='max' departPos='random' type="passenger"/>
    <trip id="181" depart="181.00" from="24584392#2" to="-80926778#5" departLane='best' departSpeed='max' departPos='random' type="passenger"/>
    <trip id="182" depart="182.00" from="-686834805#2" to="611866594" departLane='best' departSpeed='max' departPos='random' type="passenger"/>
    <trip id="183" depart="183.00" from="24584424#2" to="-752137328#0" departLane='best' departSpeed='max' departPos='random' type="passenger"/>
    <trip id="184" depart="184.00" from="-686696454#0" to="111695525#0" departLane='best' departSpeed='max' departPos='random' type="passenger"/>
    <trip id="185" depart="185.00" from="1072960946#0" to="-686834805#6" departLane='best' departSpeed='max' departPos='random' type="passenger"/>
    <trip id="186" depart="186.00" from="-24583487#12" to="1122039120" departLane='best' departSpeed='max' departPos='random' type="passenger"/>
    <trip id="187" depart="187.00" from="760536611#1" to="24584414#1" departLane='best' departSpeed='max' departPos='random' type="passenger"/>
    <trip id="188" depart="188.00" from="717907807#3" to="24584380#7" departLane='best' departSpeed='max' departPos='random' type="passenger"/>
    <trip id="189" depart="189.00" from="-675478334#8" to="24583487#3" departLane='best' departSpeed='max' departPos='random' type="passenger"/>
    <trip id="190" depart="190.00" from="-1060463404#1" to="-686685084#2" departLane='best' departSpeed='max' departPos='random' type="passenger"/>
    <trip id="191" depart="191.00" from="1117810218#0" to="24584375#4" departLane='best' departSpeed='max' departPos='random' type="passenger"/>
    <trip id="192" depart="192.00" from="24584388#1" to="1219699878#1" departLane='best' departSpeed='max' departPos='random' type="passenger"/>
    <trip id="193" depart="193.00" from="1250154743#0" to="714990514#1" departLane='best' departSpeed='max' departPos='random' type="passenger"/>
    <trip id="194" depart="194.00" from="447141143#1" to="-24584392#0" departLane='best' departSpeed='max' departPos='random' type="passenger"/>
    <trip id="195" depart="195.00" from="-1183653754#1" to="24577106" departLane='best' departSpeed='max' departPos='random' type="passenger"/>
    <trip id="196" depart="196.00" from="24584381#4" to="-80926781#0" departLane='best' departSpeed='max' departPos='random' type="passenger"/>
    <trip id="197" depart="197.00" from="502579562" to="24584511#8" departLane='best' departSpeed='max' departPos='random' type="passenger"/>
    <trip id="198" depart="198.00" from="24584409#2" to="-24584503#2" departLane='best' departSpeed='max' departPos='random' type="passenger"/>
    <trip id="199" depart="199.00" from="-24584409#3" to="-1072960946#4" departLane='best' departSpeed='max' departPos='random' type="passenger"/>
    <trip id="200" depart="200.00" from="-24584503#1" to="1271156412#2" departLane='best' departSpeed='max' departPos='random' type="passenger"/>
    <trip id="201" depart="201.00" from="611866595#2" to="-1250154743#1" departLane='best' departSpeed='max' departPos='random' type="passenger"/>
    <trip id="202" depart="202.00" from="1072978656#3" to="24584381#3" departLane='best' departSpeed='max' departPos='random' type="passenger"/>
    <trip id="203" depart="203.00" from="-24584393" to="24584419#1" departLane='best' departSpeed='max' departPos='random' type="passenger"/>