<?xml version="1.0" encoding="UTF-8"?>

<!-- generated on 2025-08-01 21:01:54.986282 by randomTrips.py v1_23_1+0000-676720d13f6
<configuration>
    <net-file value="EDQL-CP2\cp2_fixed.net.xml"/>
    <route-file value="EDQL-CP2\cp2_fixed.rou.xml"/>
    <min-distance value="100.0"/>
    <max-distance value="2000.0"/>
    <validate value="True"/>
    <end value="100.0"/>
    <period value="1.0"/>
</configuration>
-->

<routes xmlns:xsi="http://www.w3.org/2001/XMLSchema-instance" xsi:noNamespaceSchemaLocation="http://sumo.dlr.de/xsd/routes_file.xsd">
    <trip id="0" depart="0.00" from="24583594#3" to="24582918#3"/>
    <trip id="1" depart="1.00" from="561672577#0" to="1074764284#1"/>
    <trip id="2" depart="2.00" from="24577361#3" to="717512502#1"/>
    <trip id="3" depart="3.00" from="1072978656#3" to="169081336#0"/>
    <trip id="4" depart="4.00" from="24577361#7" to="1075734524#1"/>
    <trip id="5" depart="5.00" from="563679821#2" to="24583327#1"/>
    <trip id="6" depart="6.00" from="311994764#3" to="1310427872#1"/>
    <trip id="7" depart="7.00" from="80429849#7" to="293153163#0"/>
    <trip id="8" depart="8.00" from="1122230050" to="1123526751"/>
    <trip id="9" depart="9.00" from="563679821#5" to="24584375#9"/>
    <trip id="10" depart="10.00" from="80418095#6" to="995793692#2"/>
    <trip id="11" depart="11.00" from="38699585#1" to="83675250#1"/>
    <trip id="12" depart="12.00" from="563974735#9" to="1252826818#3"/>
    <trip id="13" depart="13.00" from="596373338#0" to="998790358#19"/>
    <trip id="14" depart="14.00" from="1122215531#2" to="24583487#1"/>
    <trip id="15" depart="15.00" from="1306148229#4" to="371342951#0"/>
    <trip id="16" depart="16.00" from="24583592#3" to="749606293"/>
    <trip id="17" depart="17.00" from="1393463455#2" to="1219699876#5"/>
    <trip id="18" depart="18.00" from="1386106195#0" to="38699585#3"/>
    <trip id="19" depart="19.00" from="997761552#0" to="1312753970#1"/>
    <trip id="20" depart="20.00" from="993539947" to="24577482#2"/>
    <trip id="21" depart="21.00" from="572511732#8" to="44277692#0"/>
    <trip id="22" depart="22.00" from="24582921#3" to="1074774614"/>
    <trip id="23" depart="23.00" from="707245217" to="686771927#0"/>
    <trip id="24" depart="24.00" from="24583590#3" to="24583489#3"/>
    <trip id="25" depart="25.00" from="995792406#1" to="24583588"/>
    <trip id="26" depart="26.00" from="998790355#1" to="746512768#4"/>
    <trip id="27" depart="27.00" from="1153925787#1" to="1285005493#1"/>
    <trip id="28" depart="28.00" from="562340243" to="561672577#1"/>
    <trip id="29" depart="29.00" from="1121191979#0" to="38699586#1"/>
    <trip id="30" depart="30.00" from="995792407" to="596373338#0"/>
    <trip id="31" depart="31.00" from="1072914441" to="24583335#5"/>
    <trip id="32" depart="32.00" from="24577478#2" to="80418095#8"/>
    <trip id="33" depart="33.00" from="24583592#2" to="1312753970#3"/>
    <trip id="34" depart="34.00" from="611866603#0" to="24583590#0"/>
    <trip id="35" depart="35.00" from="717454379#1" to="164675827#3"/>
    <trip id="36" depart="36.00" from="700305760#7" to="611866595#3"/>
    <trip id="37" depart="37.00" from="1219699876#4" to="1306160891#1"/>
    <trip id="38" depart="38.00" from="370761286#3" to="80418114#1"/>
    <trip id="39" depart="39.00" from="44277692#2" to="779077038#5"/>
    <trip id="40" depart="40.00" from="103176785#1" to="291266017#3"/>
    <trip id="41" depart="41.00" from="611866606#0" to="570616026#2"/>
    <trip id="42" depart="42.00" from="253307769#0" to="1121142414"/>
    <trip id="43" depart="43.00" from="611866605" to="778199266#4"/>
    <trip id="44" depart="44.00" from="1122220361" to="700305759#1"/>
    <trip id="45" depart="45.00" from="1122030700" to="370761286#2"/>
    <trip id="46" depart="46.00" from="38699591#10" to="1219699877"/>
    <trip id="47" depart="47.00" from="24583590#3" to="611866596#2"/>
    <trip id="48" depart="48.00" from="562499724#0" to="24577118#1"/>
    <trip id="49" depart="49.00" from="998790353#1" to="154356516#10"/>
    <trip id="50" depart="50.00" from="293153163#4" to="1067100260#1"/>
    <trip id="51" depart="51.00" from="24582921#5" to="24577361#6"/>
    <trip id="52" depart="52.00" from="1122038572#0" to="1285005493#8"/>
    <trip id="53" depart="53.00" from="24582921#3" to="686664590"/>
    <trip id="54" depart="54.00" from="596373332#2" to="1122038572#0"/>
    <trip id="55" depart="55.00" from="24583487#9" to="24577095#1"/>
    <trip id="56" depart="56.00" from="74851428#1" to="998790356#6"/>
    <trip id="57" depart="57.00" from="695569947" to="492439726#1"/>
    <trip id="58" depart="58.00" from="563679836#0" to="164698291#0"/>
    <trip id="59" depart="59.00" from="24584375#6" to="24577096#3"/>
    <trip id="60" depart="60.00" from="997761541#4" to="1138292933#0"/>
    <trip id="61" depart="61.00" from="44263457#1" to="311994764#1"/>
    <trip id="62" depart="62.00" from="596373338#0" to="24583489#8"/>
    <trip id="63" depart="63.00" from="164698291#0" to="675478334#3"/>
    <trip id="64" depart="64.00" from="561672577#0" to="24583769#0"/>
    <trip id="65" depart="65.00" from="24583491#0" to="717907807#4"/>
    <trip id="66" depart="66.00" from="612734124#2" to="596373338#1"/>
    <trip id="67" depart="67.00" from="998790360" to="570616028#1"/>
    <trip id="68" depart="68.00" from="994825990#1" to="717907814#5"/>
    <trip id="69" depart="69.00" from="579781481#11" to="1386548336"/>
    <trip id="70" depart="70.00" from="700305759#0" to="24577118#4"/>
    <trip id="71" depart="71.00" from="442157834" to="1121186659"/>
    <trip id="72" depart="72.00" from="38699585#2" to="997761541#7"/>
    <trip id="73" depart="73.00" from="686682898#3" to="562499724#0"/>
    <trip id="74" depart="74.00" from="993539158#0" to="24583335#0"/>
    <trip id="75" depart="75.00" from="1310427872#0" to="24584385#1"/>
    <trip id="76" depart="76.00" from="994825990#1" to="998790358#5"/>
    <trip id="77" depart="77.00" from="1121142413#3" to="1064518284"/>
    <trip id="78" depart="78.00" from="1327819723" to="80926759#1"/>
    <trip id="79" depart="79.00" from="1122215531#3" to="164698290#0"/>
    <trip id="80" depart="80.00" from="111695525#1" to="24577096#7"/>
    <trip id="81" depart="81.00" from="24583487#3" to="1185928006#0"/>
    <trip id="82" depart="82.00" from="773816585#0" to="74851428#1"/>
    <trip id="83" depart="83.00" from="235103445#0" to="24583334#1"/>
    <trip id="84" depart="84.00" from="24583488#0" to="423618438"/>
    <trip id="85" depart="85.00" from="24577096#11" to="24584392#3"/>
    <trip id="86" depart="86.00" from="267447262#3" to="31056646#4"/>
    <trip id="87" depart="87.00" from="1122038574#0" to="686696454#2"/>
    <trip id="88" depart="88.00" from="998790357#1" to="998790353#3"/>
    <trip id="89" depart="89.00" from="1122038574#1" to="24577118#2"/>
    <trip id="90" depart="90.00" from="24583590#4" to="74851424#1"/>
    <trip id="91" depart="91.00" from="38235041#4" to="1327819723"/>
    <trip id="92" depart="92.00" from="570616026#3" to="24583327#9"/>
    <trip id="93" depart="93.00" from="1219699878#2" to="997761545"/>
    <trip id="94" depart="94.00" from="563791811#5" to="24584392#1"/>
    <trip id="95" depart="95.00" from="23133600#5" to="758753899#0"/>
    <trip id="96" depart="96.00" from="1253472523#0" to="1185899956#1"/>
    <trip id="97" depart="97.00" from="1145143266#5" to="993538735"/>
    <trip id="98" depart="98.00" from="24583593#7" to="116046169#0"/>
    <trip id="99" depart="99.00" from="24583334#3" to="223906999#1"/>
</routes>
