<?xml version='1.0' encoding='utf-8'?>
<routes><vType id="car" accel="1.0" decel="5.0" maxSpeed="25" length="5" sigma="0.5" color="1,0,0" /><vehicle id="0" type="car" depart="0.0"><route edges="24584377#4 -1076782195#0" /></vehicle><vehicle id="1" type="car" depart="1.0"><route edges="-577982260#5 -38235041#6" /></vehicle><vehicle id="2" type="car" depart="2.0"><route edges="44263457#1 293153163#0" /></vehicle><vehicle id="3" type="car" depart="3.0"><route edges="714986188#2 -1354558617" /></vehicle><vehicle id="4" type="car" depart="4.0"><route edges="1122215529#0 -1121139432#1" /></vehicle><vehicle id="5" type="car" depart="5.0"><route edges="-319329101#6 142865883#1" /></vehicle><vehicle id="6" type="car" depart="6.0"><route edges="-1076782195#1 -293153159#0" /></vehicle><vehicle id="7" type="car" depart="7.0"><route edges="24584385#2 24577096#0" /></vehicle><vehicle id="8" type="car" depart="8.0"><route edges="-343654534#2 24583332#9" /></vehicle><vehicle id="9" type="car" depart="9.0"><route edges="579781481#10 -1072914441" /></vehicle><vehicle id="10" type="car" depart="10.0"><route edges="578543603#0 370672194#4" /></vehicle><vehicle id="11" type="car" depart="11.0"><route edges="-80418095#5 -24583590#3" /></vehicle><vehicle id="12" type="car" depart="12.0"><route edges="80926788#1 -83675250#2" /></vehicle><vehicle id="13" type="car" depart="13.0"><route edges="-1292286060#0 -154090267#2" /></vehicle><vehicle id="14" type="car" depart="14.0"><route edges="656933877#5 24583489#13" /></vehicle><vehicle id="15" type="car" depart="15.0"><route edges="578543603#4 423618440#0" /></vehicle><vehicle id="16" type="car" depart="16.0"><route edges="23133600#1 996679779#0" /></vehicle><vehicle id="17" type="car" depart="17.0"><route edges="1072914437#0 24577118#2" /></vehicle><vehicle id="18" type="car" depart="18.0"><route edges="611866602#4 24583592#4" /></vehicle><vehicle id="19" type="car" depart="19.0"><route edges="686771927#1 24583327#0" /></vehicle><vehicle id="20" type="car" depart="20.0"><route edges="370672197#6 -1122220358#0" /></vehicle><vehicle id="21" type="car" depart="21.0"><route edges="-370672197#4 -700293875#0" /></vehicle><vehicle id="22" type="car" depart="22.0"><route edges="-1216791011#2 -391534135#5" /></vehicle><vehicle id="23" type="car" depart="23.0"><route edges="-1386084973 -686696454#2" /></vehicle><vehicle id="24" type="car" depart="24.0"><route edges="24584375#10 1067100260#1" /></vehicle><vehicle id="25" type="car" depart="25.0"><route edges="1000448884#3 -360250362#0" /></vehicle><vehicle id="26" type="car" depart="26.0"><route edges="-561672577#0 80418094#0" /></vehicle><vehicle id="27" type="car" depart="27.0"><route edges="24584384#0 24583495#11" /></vehicle><vehicle id="28" type="car" depart="28.0"><route edges="-24583593#6 423618433#2" /></vehicle><vehicle id="29" type="car" depart="29.0"><route edges="-24583584#6 1074774613" /></vehicle><vehicle id="30" type="car" depart="30.0"><route edges="998790355#0 24584378#4" /></vehicle><vehicle id="32" type="car" depart="32.0"><route edges="656933868 563679821#2" /></vehicle><vehicle id="33" type="car" depart="33.0"><route edges="-370765175#1 -1121142415" /></vehicle><vehicle id="34" type="car" depart="34.0"><route edges="-717454375#1 -612734122" /></vehicle><vehicle id="35" type="car" depart="35.0"><route edges="-293153159#3 80418131#2" /></vehicle><vehicle id="36" type="car" depart="36.0"><route edges="700293877#1 -750482273#1" /></vehicle><vehicle id="37" type="car" depart="37.0"><route edges="253307767#2 1119548738#1" /></vehicle><vehicle id="38" type="car" depart="38.0"><route edges="74851423#8 123406184#0" /></vehicle><vehicle id="39" type="car" depart="39.0"><route edges="-553590478#2 -44263461#6" /></vehicle><vehicle id="40" type="car" depart="40.0"><route edges="24577361#9 -577982260#2" /></vehicle><vehicle id="41" type="car" depart="41.0"><route edges="24583330#2 717454379#4" /></vehicle><vehicle id="43" type="car" depart="43.0"><route edges="998790358#4 154356516#0" /></vehicle><vehicle id="44" type="car" depart="44.0"><route edges="-1277942000#5 -1122228221" /></vehicle><vehicle id="45" type="car" depart="45.0"><route edges="-154356520#1 24584373#0" /></vehicle><vehicle id="46" type="car" depart="46.0"><route edges="563974735#10 1122230049#1" /></vehicle><vehicle id="47" type="car" depart="47.0"><route edges="-1144624113#3 1075734524#1" /></vehicle><vehicle id="48" type="car" depart="48.0"><route edges="998790358#17 169081335#1" /></vehicle><vehicle id="49" type="car" depart="49.0"><route edges="995793692#1 686792698#0" /></vehicle><vehicle id="50" type="car" depart="50.0"><route edges="-1072922044#2 38699591#6" /></vehicle><vehicle id="51" type="car" depart="51.0"><route edges="31056644#0 23133600#3" /></vehicle><vehicle id="52" type="car" depart="52.0"><route edges="-561672577#0 24584380#1" /></vehicle><vehicle id="53" type="car" depart="53.0"><route edges="-164675827#2 1153925787#0" /></vehicle><vehicle id="54" type="car" depart="54.0"><route edges="1202691839#0 80926764#6" /></vehicle><vehicle id="55" type="car" depart="55.0"><route edges="700293876#1 -577982260#4" /></vehicle><vehicle id="56" type="car" depart="56.0"><route edges="1386086511#0 -24584392#5" /></vehicle><vehicle id="57" type="car" depart="57.0"><route edges="74851423#2 686925959" /></vehicle><vehicle id="58" type="car" depart="58.0"><route edges="-686847276#1 24584378#1" /></vehicle><vehicle id="59" type="car" depart="59.0"><route edges="24583491#0 -24583587#0" /></vehicle><vehicle id="60" type="car" depart="60.0"><route edges="561672577#0 23133709#3" /></vehicle><vehicle id="61" type="car" depart="61.0"><route edges="563679821#1 169081336#0" /></vehicle><vehicle id="62" type="car" depart="62.0"><route edges="-103176785#2 -80418094#0" /></vehicle><vehicle id="63" type="car" depart="63.0"><route edges="-1074774615#0 775258786#3" /></vehicle><vehicle id="64" type="car" depart="64.0"><route edges="700293880#2 612734124#2" /></vehicle><vehicle id="65" type="car" depart="65.0"><route edges="-700305758#2 -1145143266#5" /></vehicle><vehicle id="66" type="car" depart="66.0"><route edges="700293880#0 80429849#7" /></vehicle><vehicle id="67" type="car" depart="67.0"><route edges="-1253487122 1306148229#3" /></vehicle><vehicle id="68" type="car" depart="68.0"><route edges="-1153925787#4 562340243" /></vehicle><vehicle id="69" type="car" depart="69.0"><route edges="562340248#0 -24582918#3" /></vehicle><vehicle id="70" type="car" depart="70.0"><route edges="1277941999#1 24577106#3" /></vehicle><vehicle id="71" type="car" depart="71.0"><route edges="-553590482#0 700293874#0" /></vehicle><vehicle id="72" type="car" depart="72.0"><route edges="1122215531#1 -370672194#12" /></vehicle><vehicle id="73" type="car" depart="73.0"><route edges="23133600#6 423618440#1" /></vehicle><vehicle id="74" type="car" depart="74.0"><route edges="-267447262#9 -74851423#1" /></vehicle><vehicle id="75" type="car" depart="75.0"><route edges="998790358#14 24584392#0" /></vehicle><vehicle id="77" type="car" depart="77.0"><route edges="-164786644#2 -38235302#1" /></vehicle><vehicle id="78" type="car" depart="78.0"><route edges="-80418094#1 24583332#6" /></vehicle><vehicle id="79" type="car" depart="79.0"><route edges="-370765179#3 -371342951#2" /></vehicle><vehicle id="80" type="car" depart="80.0"><route edges="-1184932071#2 24584374#1" /></vehicle><vehicle id="81" type="car" depart="81.0"><route edges="-370765175#1 720546573#2" /></vehicle><vehicle id="82" type="car" depart="82.0"><route edges="686685084#0 -123401419#0" /></vehicle><vehicle id="83" type="car" depart="83.0"><route edges="-38235351#1 291266017#5" /></vehicle><vehicle id="84" type="car" depart="84.0"><route edges="-311994764#1 -24582921#4" /></vehicle><vehicle id="85" type="car" depart="85.0"><route edges="80414533#4 24582919#0" /></vehicle><vehicle id="86" type="car" depart="86.0"><route edges="125453679#5 563791813" /></vehicle><vehicle id="87" type="car" depart="87.0"><route edges="578543603#5 -289747210#0" /></vehicle><vehicle id="88" type="car" depart="88.0"><route edges="-1310427872#0 1145143266#11" /></vehicle><vehicle id="89" type="car" depart="89.0"><route edges="1122215531#2 1253487631#1" /></vehicle><vehicle id="90" type="car" depart="90.0"><route edges="423618425#0 293153145#1" /></vehicle><vehicle id="91" type="car" depart="91.0"><route edges="998790352#1 -154356520#4" /></vehicle><vehicle id="93" type="car" depart="93.0"><route edges="686771927#1 -488544864#3" /></vehicle><vehicle id="94" type="car" depart="94.0"><route edges="-24584392#5 1185928009" /></vehicle><vehicle id="95" type="car" depart="95.0"><route edges="1122215529#0 -686771927#1" /></vehicle><vehicle id="96" type="car" depart="96.0"><route edges="-423618433#2 758753899#3" /></vehicle><vehicle id="97" type="car" depart="97.0"><route edges="116046167#2 686792698#2" /></vehicle><vehicle id="98" type="car" depart="98.0"><route edges="24577096#7 -1122274850" /></vehicle><vehicle id="99" type="car" depart="99.0"><route edges="998790359 615556515#0" /></vehicle></routes>