<?xml version="1.0" encoding="UTF-8"?>

<!-- generated on 2025-08-03 03:24:58.917138 by randomTrips.py v1_23_1+0000-676720d13f6
<configuration>
    <net-file value="Chandni-Chowk/ch.net.xml"/>
    <output-trip-file value="A-Star/ChandniChowk\chandnichowk_trips.xml"/>
    <trip-attributes value="departLane='best' departSpeed='max' departPos='random'"/>
    <vehicle-class value="passenger"/>
    <validate value="True"/>
    <end value="1000.0"/>
    <period value="10.0"/>
</configuration>
-->

<!-- generated on 2025-08-03 03:24:58 by Eclipse SUMO duarouter Version 1.23.1
<duarouterConfiguration xmlns:xsi="http://www.w3.org/2001/XMLSchema-instance" xsi:noNamespaceSchemaLocation="http://sumo.dlr.de/xsd/duarouterConfiguration.xsd">

    <input>
        <net-file value="Chandni-Chowk/ch.net.xml"/>
        <route-files value="A-Star/ChandniChowk\chandnichowk_trips.xml"/>
    </input>

    <output>
        <output-file value="routes.rou.xml"/>
        <alternatives-output value="NUL"/>
    </output>

    <time>
        <begin value="0.0"/>
        <end value="1000.0"/>
    </time>

    <report>
        <no-warnings value="true"/>
        <ignore-errors value="true"/>
        <no-step-log value="true"/>
    </report>

</duarouterConfiguration>
-->

<routes xmlns:xsi="http://www.w3.org/2001/XMLSchema-instance" xsi:noNamespaceSchemaLocation="http://sumo.dlr.de/xsd/routes_file.xsd">
    <vType id="passenger" vClass="passenger"/>
    <vehicle id="0" type="passenger" depart="0.00" departLane="best" departPos="random" departSpeed="max">
        <route edges="295636695#0 295636695#1 295636695#3 44923693#3 44923693#4 44923693#5 44141435#7 80940694#0 80940694#2 80940694#3 80940694#4 80940694#5 80940694#6 80940694#7 80940694#8 80940694#9 80940694#10 80940694#11 80940694#12 80940694#13 80940694#14 80940694#15 80940694#16 -48532953#15 -48532953#14 -48533140 -1070575144#4"/>
    </vehicle>
    <vehicle id="1" type="passenger" depart="10.00" departLane="best" departPos="random" departSpeed="max">
        <route edges="-44923693#3 44923693#3 44923693#4 44923693#5 44141435#7 80940694#0 80940694#2 80940694#3 80940694#4 80940694#5 80940694#6 80940694#7 80940694#8 80940694#9 80940694#10 80940694#11 80940694#12 80940712 44141357#4 44141276#0 44141276#1 -44141276#1 -44141276#0"/>
    </vehicle>
    <vehicle id="2" type="passenger" depart="20.00" departLane="best" departPos="random" departSpeed="max">
        <route edges="44141545#10 44141545#11 -44141545#11 -44141545#10 -44141545#9 -44141545#8 -44141545#7 -44141545#6 -44141545#5 -44141545#4 -44141545#3 -44141545#2 44141357#14 44141357#15 44141357#16 44141357#17 44141357#18 -44141435#7 -44141435#6 -44141435#5 -44141435#4 -44141435#3 -44141435#2 -44141435#1 80940711#3 80940711#4 423608337#0"/>
    </vehicle>
    <vehicle id="3" type="passenger" depart="30.00" departLane="best" departPos="random" departSpeed="max">
        <route edges="776026191#2 798855526#1 -681792944#0 1080170953 1042963182#1 264592548#20 44923698#0 44923698#1 44923698#2 44923698#3 -169826201"/>
    </vehicle>
    <vehicle id="4" type="passenger" depart="40.00" departLane="best" departPos="random" departSpeed="max">
        <route edges="-82946096#3 82946096#3 82946096#4 -44141299#4 -44141299#3 -44141299#2 -44141299#1 80940694#6 80940694#7 80940694#8 80940694#9 80940694#10 80940694#11 80940694#12 80940694#13 80940694#14 80940694#15 80940694#16 80940694#17 1147871209 77617199#1 77617199#2 77617199#3 77617199#4 -1076018284"/>
    </vehicle>
    <vehicle id="5" type="passenger" depart="50.00" departLane="best" departPos="random" departSpeed="max">
        <route edges="-44141125#5 44141125#5 44141357#3 44141357#4 44141357#5 44141357#6 44141357#8 44141357#9 44141357#10 44141357#11 44141357#12 1181124061#1 1181124061#2 1181124061#3 1181124061#4"/>
    </vehicle>
    <vehicle id="6" type="passenger" depart="60.00" departLane="best" departPos="random" departSpeed="max">
        <route edges="-1070575144#4 48533135#1 48532953#13 48532953#14 48532953#15 80940694#17 1147871209 77617199#1 77617199#2 77617199#3 77617199#4 77617199#5 77617199#6 77617256#0 77617256#1 77617256#2 604050026#0-AddedOnRampEdge 604050026#0 604050026#1 991702391#0 991702391#1 991702391#3 991702391#4 991702391#5 991702391#6 991702391#10 80940711#0 80940711#1 80940711#2 80940711#3 1182164161 -320348721#3"/>
    </vehicle>
    <vehicle id="7" type="passenger" depart="70.00" departLane="best" departPos="random" departSpeed="max">
        <route edges="320348701 295636695#3 -44923693#2 -264599028#3 -264599028#2 -264599028#0 -264592548#21 -264592548#20 -264592548#19 -264592548#18 -264592548#17 -264592548#15 -169826222#2 -169826222#1 1041351325 169826195#0"/>
    </vehicle>
    <vehicle id="8" type="passenger" depart="80.00" departLane="best" departPos="random" departSpeed="max">
        <route edges="-44141146#1 -82710787#6 -82710787#5 -82710787#3 -82710787#1 -82710787#0 -82710788#2 -82710788#1 -82710788#0 293420639#3 -264592551#7 -264592551#6 -264592551#5 -264592551#4 -264592551#3 -264592551#2 -264592551#1 -264592551#0 264592553#2 264592553#0 264592553#1 264592551#0 264592551#1"/>
    </vehicle>
    <vehicle id="9" type="passenger" depart="90.00" departLane="best" departPos="random" departSpeed="max">
        <route edges="48535261#1 48535261#2 1186764831 48533140 48532953#14 48532953#15 44141357#1 44830358#1 44830358#2 44830358#3 -1067871270#1"/>
    </vehicle>
    <vehicle id="10" type="passenger" depart="100.00" departLane="best" departPos="random" departSpeed="max">
        <route edges="48533153#2 -48533153#2 -48533153#1 -48533153#0 48533132 48532953#0 48532953#1 48532953#2 48532953#3 48532953#4 48532953#5 48532953#6 48532953#7 48532953#8 48532953#9 48532953#10 48532953#11 48532953#12 48532953#13 48532953#14 48532953#15 44141357#1 44141357#2 44141357#3 44141357#4 44141357#5 82946131#0 82946131#1 82946131#2 -1364873685#6 -1364873685#5 -1364873685#4 -1364873685#2 -1364873685#1 -1364873685#0 44141299#5 44141299#6 44141299#7 44141299#8"/>
    </vehicle>
    <vehicle id="11" type="passenger" depart="110.00" departLane="best" departPos="random" departSpeed="max">
        <route edges="-693912721#2 693912721#2 693912719#1 693912719#3 693912726#0 693912726#1 80940694#15 44830358#1 44830358#2 44830358#3 44830358#4 44830358#5 44830358#6 -267447983#4 -267447983#3 -293420636#2 -293420636#1 -293420636#0"/>
    </vehicle>
    <vehicle id="12" type="passenger" depart="120.00" departLane="best" departPos="random" departSpeed="max">
        <route edges="82710760#0 82710760#1 82710760#2 82710760#3 -1067871272 267447983#2 267447983#3 267447983#4 267447983#5 1102507029#0 1102507029#1 1147871210 44141357#0 -48532953#15 -48532953#14 -48532953#13 -48532953#12 -48532953#11 -48532953#10 -48532953#9 -693912719#7 -693912719#6"/>
    </vehicle>
    <vehicle id="13" type="passenger" depart="130.00" departLane="best" departPos="random" departSpeed="max">
        <route edges="-169826196 169826220#0 169826220#1 264592548#18 264592548#19 264592548#20 264592548#21 264599028#0 -169826213#2 -169826213#1"/>
    </vehicle>
    <vehicle id="14" type="passenger" depart="140.00" departLane="best" departPos="random" departSpeed="max">
        <route edges="693912719#4 693912719#5 693912719#6 693912719#7 48532953#9 48532953#10 48532953#11 48532953#12 48532953#13 48532953#14 48532953#15 80940694#17 1147871209 77617199#1 77617199#2 77617199#3 77617199#4 77617199#5 77617199#6 77617256#0 77617256#1 77617256#2 604050026#0-AddedOnRampEdge 604050026#0 604050026#1 991702391#0 991702391#1 991702391#3 991702391#4 991702391#5 991702391#6 991702391#10 80940711#0 80940711#1 80940711#2 80940711#3 80940711#4 80940711#5 80940711#6 80940711#7 80940711#8 264615171#1"/>
    </vehicle>
    <vehicle id="15" type="passenger" depart="150.00" departLane="best" departPos="random" departSpeed="max">
        <route edges="48533153#4 -48533153#4 -48533153#3 -48533153#2 -48533153#1 1076018284 77617199#5 77617199#6 77617256#0 77617256#1 77617256#2 604050026#0-AddedOnRampEdge 604050026#0 604050026#1 991702391#0 991702391#1 991702391#3 991702391#4 991702391#5 991702391#6 991702391#10 80940711#0 80940711#1 80940711#2 44141435#1 44141435#2 44141435#3 44141435#4 44141435#5 44141435#6 -44923693#5 -44923693#4 -44923693#3 -44923693#2 -44923693#1 -44923693#0 44141522#0 44141522#1 44141522#2 44141522#3"/>
    </vehicle>
    <vehicle id="16" type="passenger" depart="160.00" departLane="best" departPos="random" departSpeed="max">
        <route edges="1364873700#1 -1364873685#1 -1364873685#0 -82946096#4 -82946096#3 82946096#3"/>
    </vehicle>
    <vehicle id="17" type="passenger" depart="170.00" departLane="best" departPos="random" departSpeed="max">
        <route edges="-755795857 320348717#9 320348717#10 44141357#14 44141357#15 44141357#16 44141357#17 44141357#18 -44141502#7 -44141502#6 -44141502#5 -44141502#4 -44141502#3 -44141502#1 -44141502#0 -264592548#21 44923698#0 44923698#1 44923698#2 44923698#3 44923698#4 169826205#6"/>
    </vehicle>
    <vehicle id="18" type="passenger" depart="180.00" departLane="best" departPos="random" departSpeed="max">
        <route edges="658868906#0 658868906#1 658868906#2 658868906#3 658868906#4 658868906#5 1077916786#0 1077916786#1 -1118837805 -82710760#2 -82710760#1 -82710760#0 82710788#2 82710787#0 82710787#1 293420636#0"/>
    </vehicle>
    <vehicle id="19" type="passenger" depart="190.00" departLane="best" departPos="random" departSpeed="max">
        <route edges="696306283#1 696306284#1 696306284#2 -264592551#3 -264592551#2 -264592551#1 -264592551#0 264592553#2 264592553#0 264592548#0 264592548#2 264592548#3 264592548#4 264592548#6 264592548#7 264592548#8 264592548#10 264592548#11"/>
    </vehicle>
    <vehicle id="20" type="passenger" depart="200.00" departLane="best" departPos="random" departSpeed="max">
        <route edges="44141357#1 44141357#2 44141357#3 44141357#4 44141276#0 44141276#1 -1364873685#8 -82946119#4 -82946119#3 -82946119#2 -423608341 -82946112 -82946100#1 -82946100#0 44141299#9 -1079742369#2 -1079742369#1 -1079742369#0"/>
    </vehicle>
    <vehicle id="21" type="passenger" depart="210.00" departLane="best" departPos="random" departSpeed="max">
        <route edges="-44141299#10 -44141299#9 -44141299#8 -44141299#7 -44141299#6 -44141299#5 -44141299#4 -44141299#3 -44141299#2 -44141299#1 80940694#6 80940694#7 80940694#8 80940694#9 80940694#10 80940694#11 80940694#12 80940694#13 80940694#14 80940694#15 80940694#16 -48532953#15 -48532953#14 -48532953#13 -48532953#12 -48532953#11 -48532953#10 -48532953#9"/>
    </vehicle>
    <vehicle id="22" type="passenger" depart="220.00" departLane="best" departPos="random" departSpeed="max">
        <route edges="-1364873685#2 -1364873685#1 -1364873685#0 -44141299#4 -44141299#3 -44141299#2 -44141299#1 44141357#12 44141357#13 44141357#14 44141357#15 44141357#16 44141357#17 44141357#18 -44141435#7 -44141435#6 -44141435#5 -44141435#4 -44141435#3 -44141435#2"/>
    </vehicle>
    <vehicle id="23" type="passenger" depart="230.00" departLane="best" departPos="random" departSpeed="max">
        <route edges="-169826213#1 -169826213#0 44923693#4 44923693#5 44141435#7 80940694#0 80940694#2 80940694#3 80940694#4 80940694#5 80940694#6 80940694#7 80940694#8 80940694#9 80940694#10 80940694#11 80940694#12 80940694#13 80940694#14 80940694#15 80940694#16 -48532953#15 -48532953#14 -48532953#13 -48532953#12 -48532953#11 -48532953#10 -48532953#9 -48532953#8 -48532953#7 -48532953#6 -48532953#5 -48532953#4 -48532953#3 -48532953#2 -48532953#1 -48532953#0"/>
    </vehicle>
    <vehicle id="24" type="passenger" depart="240.00" departLane="best" departPos="random" departSpeed="max">
        <route edges="293420649#0 293420649#1 44830358#5 44830358#6 -267447983#4 -267447983#3 -293420636#2 -293420636#1 -293420636#0 -82710787#1 -82710787#0 82946148#0 82946148#1 755068997 -755068998#2 -755068998#1"/>
    </vehicle>
    <vehicle id="25" type="passenger" depart="250.00" departLane="best" departPos="random" departSpeed="max">
        <route edges="-755069000#2 -1128268559 -82946100#0 -44141299#8 -44141299#7 -44141299#6 -44141299#5 -44141299#4 -44141299#3 -44141299#2 -44141299#1 44141357#12 1181124061#1 1181124061#2 1181124061#3 1181124061#4 1181124061#5 1181124061#6 991702391#10 80940711#0 80940711#1 80940711#2 80940711#3 80940711#4 423608337#0 -423608337#0"/>
    </vehicle>
    <vehicle id="26" type="passenger" depart="260.00" departLane="best" departPos="random" departSpeed="max">
        <route edges="-44611072#1 44923693#0 44923693#1 44923693#2 44923693#3 44923693#4 44923693#5 44141435#7 80940694#0 80940694#2 80940694#3 80940694#4 80940694#5 80940694#6 80940694#7 80940694#8 80940694#9 80940694#10 80940694#11 80940694#12 80940694#13 80940694#14"/>
    </vehicle>
    <vehicle id="27" type="passenger" depart="270.00" departLane="best" departPos="random" departSpeed="max">
        <route edges="320348696 -320348726#2 -320348726#1 44923693#1 44923693#2 44923693#3 44923693#4 44923693#5 44141435#7 80940694#0 80940694#2 80940694#3 80940694#4 80940694#5 80940694#6 80940694#7 80940694#8 80940694#9 80940694#10 80940694#11 80940694#12 80940712 -80940712 264615172#2 264615172#3"/>
    </vehicle>
    <vehicle id="28" type="passenger" depart="280.00" departLane="best" departPos="random" departSpeed="max">
        <route edges="-293420652 -82710765#0 44141125#4 44141125#5 44141357#3 44141357#4 44141357#5 44141357#6 44141357#8 44141357#9 44141357#10 44141357#11 44141357#12 44141357#13 44141357#14 44141357#15 44141357#16 44141357#17 44141357#18 -44141502#7 -44141502#6 -44141502#5 -44141502#4 -44141502#3 -44141502#1 -44141502#0 -264592548#21 44923698#0 44923698#1 44923698#2 44923698#3 44923698#4 44923698#6 44141522#2"/>
    </vehicle>
    <vehicle id="29" type="passenger" depart="290.00" departLane="best" departPos="random" departSpeed="max">
        <route edges="-293420639#3 -293420639#2 -260320120 -264592551#9 -264592551#8 -264592551#7 -264592551#6 -264592551#5 -264592551#4 -264592551#3 -264592551#2 -264592551#1 -264592551#0 264592553#2 264592553#0 264592548#0 264592548#2 264592548#3 264592548#4 264592548#6 264592548#7 264592548#8 264592548#10 -1127663270#1 -1127663270#0 -1076827637#0 169826228#1 169826228#2 798631999#0 798631999#1 798632000 -798632000 -798631999#1"/>
    </vehicle>
    <vehicle id="30" type="passenger" depart="300.00" departLane="best" departPos="random" departSpeed="max">
        <route edges="82946148#0 82946148#1 82946148#3 82946148#4 -82946125 -293420650 44141146#5 44141146#6 44141146#7 44141146#8 -44141276#1 -44141276#0 44141357#5 44141357#6 44141357#8 44141357#9 44141357#10 44141357#11 44141357#12 1181124061#1 1181124061#2 1181124061#3 1181124061#4 1181124061#5 320348687"/>
    </vehicle>
    <vehicle id="31" type="passenger" depart="310.00" departLane="best" departPos="random" departSpeed="max">
        <route edges="169826220#0 169826220#1 264592548#18 264592548#19 264592548#20 264592548#21 44141502#0 44141502#1 44141502#3 44141502#4 44141502#5 44141502#6 44141502#7 80940694#0 80940694#2 80940694#3 80940694#4 80940694#5 80940694#6 80940694#7 80940694#8 80940694#9 80940694#10 80940694#11 80940694#12 80940694#13 -44141125#5 -44141125#4 -44141125#3 44141146#0"/>
    </vehicle>
    <vehicle id="32" type="passenger" depart="320.00" departLane="best" departPos="random" departSpeed="max">
        <route edges="693912717#3 693912719#6 693912719#7 48532953#9 48532953#10 48532953#11 48532953#12 48532953#13 48532953#14 48532953#15"/>
    </vehicle>
    <vehicle id="33" type="passenger" depart="330.00" departLane="best" departPos="random" departSpeed="max">
        <route edges="-44141299#2 -44141299#1 44141357#12 1181124061#1 1181124061#2 1181124061#3 1181124061#4 -320348704 -1076266783#1 -1076266783#0"/>
    </vehicle>
    <vehicle id="34" type="passenger" depart="340.00" departLane="best" departPos="random" departSpeed="max">
        <route edges="-48533153#3 -48533153#2 -48533153#1 -48533153#0 48533132 48532953#0 48532953#1 48532953#2 48532953#3 48532953#4 48532953#5 48532953#6 48532953#7 48532953#8 48532953#9 48532953#10 48532953#11 48532953#12 48532953#13 48532953#14 48532953#15 44141357#1 44830358#1 44830358#2 44830358#3 44830358#4 44830358#5 44830358#6 -44830358#6"/>
    </vehicle>
    <vehicle id="35" type="passenger" depart="350.00" departLane="best" departPos="random" departSpeed="max">
        <route edges="-320348726#4 -320348726#2 -320348726#1 44923693#1 44923693#2 44923693#3 44923693#4 44923693#5 44141435#7 80940694#0 80940694#2 80940694#3 80940694#4 80940694#5 80940694#6"/>
    </vehicle>
    <vehicle id="36" type="passenger" depart="360.00" departLane="best" departPos="random" departSpeed="max">
        <route edges="744801990 -798855531#0 798855530 -44141146#5 -44141146#4 -798855524#2 -798855524#0 44141125#5 80940694#14 80940694#15 80940694#16 -48532953#15 -48532953#14 -48533140 -1186764831 -48535261#2 -48535261#1"/>
    </vehicle>
    <vehicle id="37" type="passenger" depart="370.00" departLane="best" departPos="random" departSpeed="max">
        <route edges="320348716#0 320348716#1 1076266783#1 320348704 1181124061#5 320348687 127661012#3 127661012#4 127661012#5 127661012#6 127661012#7 127661012#8 127661012#9 127661012#10 80940694#7 80940694#8 80940694#9 80940694#10 80940694#11 80940694#12 80940712 44141357#4 44141276#0 44141276#1 -44141146#8 -44141146#7 -44141146#6 -798855530"/>
    </vehicle>
    <vehicle id="38" type="passenger" depart="380.00" departLane="best" departPos="random" departSpeed="max">
        <route edges="798631998 -798631999#0 -169826228#2 -169826228#1 1076827637#0 1127663270#0 1127663270#1 -264592548#10 -264592548#8 -264592548#7 -264592548#6 -264592548#4 -264592548#3 -264592548#2 -264592548#0 264592553#1 264592551#0 264592551#1 264592551#2 264592551#3 264592551#4 264592551#5 264592551#6 264592551#7 264592551#8 264592551#9 264592551#10 1077916786#1 1077916786#2 267447983#0 267447983#1 267447983#2 267447983#3 267447983#4 267447983#5 1102507029#0 1102507029#1 1147871210 44141357#0 -48532953#15 -48532953#14 -48532953#13 -48532953#12 -48532953#11 -48532953#10 -48532953#9 -48533127#1 1070575144#0"/>
    </vehicle>
    <vehicle id="39" type="passenger" depart="390.00" departLane="best" departPos="random" departSpeed="max">
        <route edges="-44610937#2 -44610937#1 -44610937#0 -264592551#4 -264592551#3 -264592551#2 -264592551#1 -264592551#0 264592553#2 264592553#0 264592548#0 264592548#2 264592548#3 264592548#4 264592548#6 264592548#7 264592548#8 264592548#10 264592548#11 264592548#12 264592548#14 264592548#15 44141529#0 -44141529#0"/>
    </vehicle>
    <vehicle id="40" type="passenger" depart="400.00" departLane="best" departPos="random" departSpeed="max">
        <route edges="169826224 -44923698#2 -44923698#1 -44923698#0 -264592548#20 -264592548#19 -264592548#18 -264592548#17 -264592548#15 -264592548#14 -264592548#12 -264592548#11 -264592548#10 -264592548#8 -264592548#7 -264592548#6 -264592548#4 -264592548#3 -264592548#2 -264592548#0 264592553#1 264592551#0 264592551#1 264592551#2 264592551#3 264592551#4 264592551#5 264592551#6 264592551#7 264592551#8 264592551#9 264592551#10 1077916785#1 -658868906#5 -658868906#4 266885602#0 266885602#1 266885602#2 -44610937#2"/>
    </vehicle>
    <vehicle id="41" type="passenger" depart="410.00" departLane="best" departPos="random" departSpeed="max">
        <route edges="264592548#18 264592548#19 264592548#20 264592548#21 44141502#0 44141502#1 44141502#3 44141502#4 44141502#5 44141502#6 44141502#7 80940694#0 80940694#2 80940694#3 80940694#4 80940694#5 80940694#6 80940694#7 80940694#8 80940694#9 80940694#10 80940694#11 80940694#12 80940694#13 80940694#14 80940694#15 80940694#16 80940694#17 1147871209 77617199#1"/>
    </vehicle>
    <vehicle id="42" type="passenger" depart="420.00" departLane="best" departPos="random" departSpeed="max">
        <route edges="-798855529#3 -798855529#2 -798855529#0 82946148#4 -82946125 -293420650 -44141146#4"/>
    </vehicle>
    <vehicle id="43" type="passenger" depart="430.00" departLane="best" departPos="random" departSpeed="max">
        <route edges="991702391#3 991702391#4 991702391#5 991702391#6 77617205#6 77617205#7 77617205#8 44830355#2 -176492662#2 -1070560848#7 -1070560848#5 1184991409#0"/>
    </vehicle>
    <vehicle id="44" type="passenger" depart="440.00" departLane="best" departPos="random" departSpeed="max">
        <route edges="-1377217246#4 -1377217246#3 -1377217246#2 -1377217246#1 -1377217246#0 320348717#0 320348717#1 320348717#2 320348717#3 320348717#5 320348717#7 320348717#9 320348717#10 80940694#4 80940694#5 44141299#1 44141299#2 44141299#3 44141299#4 44141299#5 44141299#6 44141299#7 44141299#8 44141299#9 -1079742369#2"/>
    </vehicle>
    <vehicle id="45" type="passenger" depart="450.00" departLane="best" departPos="random" departSpeed="max">
        <route edges="-169826228#4 -169826228#2 -169826228#1 1076827637#0 1127663270#0 1127663270#1 -264592548#10 -264592548#8 -264592548#7 -264592548#6 -264592548#4 -264592548#3 -264592548#2 -264592548#0 264592553#1 264592551#0 264592551#1 264592551#2 264592551#3 264592551#4 264592551#5 264592551#6 264592551#7 -293420639#3 82710788#0 82710788#1 82710788#2 82710787#0 82710787#1 293420644"/>
    </vehicle>
    <vehicle id="46" type="passenger" depart="460.00" departLane="best" departPos="random" departSpeed="max">
        <route edges="48533130 48532953#8 48532953#9 48532953#10 48532953#11 48532953#12 48532953#13 48532953#14 48532953#15 44141357#1 44141357#2 44141357#3 44141357#4 44141276#0 44141276#1 -1364873685#8 -82946119#4 -82946119#3 -82946119#2 -423608341 -82946112"/>
    </vehicle>
    <vehicle id="47" type="passenger" depart="470.00" departLane="best" departPos="random" departSpeed="max">
        <route edges="-1184991409#1 -1070560849#3 -1070560849#2 -1070560849#1 -1070560849#0 -176492662#0 -48533132 48533153#0 1076018284 77617199#5 77617199#6 77617256#0 77617256#1 77617256#2 604050026#0-AddedOnRampEdge 604050026#0 604050026#1 991702391#0 991702391#1 991702391#3 991702391#4 991702391#5 991702391#6 991702391#10 80940711#0 80940711#1 80940711#2 44141435#1 44141435#2 44141435#3 44141435#4 44141435#5 -798632022 -798632021 -798632020"/>
    </vehicle>
    <vehicle id="48" type="passenger" depart="480.00" departLane="best" departPos="random" departSpeed="max">
        <route edges="991702391#1 991702391#3 991702391#4 991702391#5 991702391#6 991702391#10 80940711#0 80940711#1 80940711#2 44141435#1 44141435#2 44141435#3 44141435#4 44141435#5 44141435#6 44141435#7 -44141502#7 -44141502#6 -44141502#5 -44141502#4 -44141502#3 -44141502#1 -44141502#0 -264592548#21 -264592548#20 -264592548#19 -264592548#18 -264592548#17 -264592548#15 -264592548#14 -264592548#12 -264592548#11 -264592548#10 -264592548#8 -264592548#7 -264592548#6 -264592548#4 -264592548#3 -264592548#2 -264592548#0 264592553#1 264592551#0 264592551#1 264592551#2 1362943969#0"/>
    </vehicle>
    <vehicle id="49" type="passenger" depart="490.00" departLane="best" departPos="random" departSpeed="max">
        <route edges="82946096#0 82946096#1 82946096#2 82946096#3 82946096#4 -44141299#4 -44141299#3 -44141299#2 -44141299#1 44141357#12 1181124061#1 1181124061#2 1181124061#3 1181124061#4 1181124061#5 1181124061#6 77617205#6 77617205#7 77617205#8 44830355#2 44830355#3 44830355#4 720102664#0"/>
    </vehicle>
    <vehicle id="50" type="passenger" depart="500.00" departLane="best" departPos="random" departSpeed="max">
        <route edges="-1069870998 44610966 -266885602#1 -266885602#0 658868906#4 658868906#5 1077916786#0 -264592551#10 -264592551#9 -264592551#8 -264592551#7 -264592551#6 -264592551#5 -264592551#4 -264592551#3 -264592551#2 -264592551#1 -264592551#0 264592553#2 264592553#0 264592548#0 264592548#2 264592548#3 264592548#4 264592548#6 264592548#7 264592548#8 264592548#10 264592548#11 264592548#12 264592548#14 264592548#15 264592548#17 264592548#18 264592548#19 264592548#20 264592548#21 44141502#0 44141502#1 44141502#3 44141502#4"/>
    </vehicle>
    <vehicle id="51" type="passenger" depart="510.00" departLane="best" departPos="random" departSpeed="max">
        <route edges="423608337#1 320348705 798632020 798632021 798632022 44141435#6 44141435#7 80940694#0 80940694#2 80940694#3 80940694#4 80940694#5 44141299#1 44141299#2 44141299#3 44141299#4 1364873685#0 1364873685#1 -1364873700#1 -1364873700#0 1364873700#0 1364873700#1"/>
    </vehicle>
    <vehicle id="52" type="passenger" depart="520.00" departLane="best" departPos="random" departSpeed="max">
        <route edges="-44611072#1 44923693#0 44923693#1 44923693#2 44923693#3 44923693#4 44923693#5 -44141435#6 -44141435#5 -44141435#4 -44141435#3 -44141435#2 -44141435#1 80940711#3 1182164161 -320348721#3 -320348721#2 -320348689 320348688"/>
    </vehicle>
    <vehicle id="53" type="passenger" depart="530.00" departLane="best" departPos="random" departSpeed="max">
        <route edges="-170062861 1181124061#4 1181124061#5 320348687 127661012#3 127661012#4 127661012#5 127661012#6 127661012#7 127661012#8 127661012#9 127661012#10 80940694#7 80940694#8 80940694#9 80940694#10 80940694#11 80940694#12 80940712 44141357#4 44141276#0 44141276#1 -44141146#8 -44141146#7 -44141146#6 -44141146#5 293420650 82946125 -82946148#4"/>
    </vehicle>
    <vehicle id="54" type="passenger" depart="540.00" departLane="best" departPos="random" departSpeed="max">
        <route edges="1070560846 1070560848#3 -1070560847 1070560848#7 176492662#2 44830355#3 44830355#4 44830355#5 44830355#7 44830355#8 264615172#1 80940712"/>
    </vehicle>
    <vehicle id="55" type="passenger" depart="550.00" departLane="best" departPos="random" departSpeed="max">
        <route edges="744801990 -798855531#0 -423608342 -798855529#0 -82946148#3 -82946148#1 -82946148#0 -82710788#2 -82710788#1 -82710788#0 -293420639#2 -260320120 264592551#10 1077916785#1 -658868906#5 -658868906#4 266885602#0 266885602#1 -44610966"/>
    </vehicle>
    <vehicle id="56" type="passenger" depart="560.00" departLane="best" departPos="random" departSpeed="max">
        <route edges="1128268559 -1128268559 -82946100#0 -44141299#8 -44141299#7 -44141299#6 -44141299#5 -44141299#4 -44141299#3 -44141299#2 -44141299#1 44141357#12 1181124061#1 1181124061#2 1181124061#3 1181124061#4 1181124061#5 1181124061#6 991702391#10 80940711#0 80940711#1 80940711#2 80940711#3 1182164161 320348721#4 320348678#1 -320348692"/>
    </vehicle>
    <vehicle id="57" type="passenger" depart="570.00" departLane="best" departPos="random" departSpeed="max">
        <route edges="77617256#1 77617256#2 604050026#0-AddedOnRampEdge 604050026#0 604050026#1 991702391#0 991702391#1 44830355#2 44830355#3 44830355#4 44830355#5 44830355#7 44830355#8 264615172#1 80940712 44141357#4 44141276#0 44141276#1 -44141146#8 -44141146#7 744801990"/>
    </vehicle>
    <vehicle id="58" type="passenger" depart="580.00" departLane="best" departPos="random" departSpeed="max">
        <route edges="-48533128#2 48533127#0 48533127#1 -48532953#8 -48532953#7 -48532953#6 -48532953#5 -48532953#4 -48532953#3 -48532953#2 -48532953#1 -48532953#0 -48533132 48533153#0 1076018284 77617199#5 77617199#6 77617256#0 77617256#1 77617256#2 604050026#0-AddedOnRampEdge 604050026#0 604050026#1 991702391#0 991702391#1 991702391#3 991702391#4 991702391#5 991702391#6 991702391#10 80940711#0 80940711#1 80940711#2 80940711#3 1182164161 320348721#4 320348678#1 320348678#2 320348678#4"/>
    </vehicle>
    <vehicle id="59" type="passenger" depart="590.00" departLane="best" departPos="random" departSpeed="max">
        <route edges="264615171#3 264615171#4 44923693#0 44923693#1 44923693#2 44923693#3 44923693#4 44923693#5 44141435#7 80940694#0 80940694#2 80940694#3 80940694#4 80940694#5 80940694#6 80940694#7 80940694#8 80940694#9 80940694#10 80940694#11 80940694#12 80940694#13 -44141125#5 -44141125#4 -44141125#3 -44141125#2 -44141125#0 -267447983#3 -267447983#2"/>
    </vehicle>
    <vehicle id="61" type="passenger" depart="610.00" departLane="best" departPos="random" departSpeed="max">
        <route edges="48532953#2 48532953#3 48532953#4 48532953#5 48532953#6 48532953#7 48532953#8 48532953#9 48532953#10 48532953#11 48532953#12 48532953#13 48532953#14 48532953#15 44141357#1 44830358#1 44830358#2 44830358#3 44830358#4 44830358#5 44830358#6 -267447983#4 -267447983#3 -267447983#2 -267447983#1 -267447983#0 1077916785#0 -264592551#10 -264592551#9 -264592551#8 -264592551#7 -264592551#6 -264592551#5 -264592551#4 -264592551#3 1362943969#0 1362943969#1 1362943969#2"/>
    </vehicle>
    <vehicle id="62" type="passenger" depart="620.00" departLane="best" departPos="random" departSpeed="max">
        <route edges="-1041351321#0 1041351322#1 169826220#1 -264592548#17 44141529#0 44141529#1 -44141545#3 -681792944#3"/>
    </vehicle>
    <vehicle id="63" type="passenger" depart="630.00" departLane="best" departPos="random" departSpeed="max">
        <route edges="-1070560848#5 -1070560848#4 -1070560848#3 -1070560848#1 -1070560848#0 -1070560849#1 -1070560849#0 -176492662#0 48532953#0 48532953#1 48532953#2 48532953#3 48532953#4 48532953#5 48532953#6 48532953#7 48532953#8 48532953#9 48532953#10 48532953#11 48532953#12 48532953#13 48532953#14 48532953#15 44141357#1 44141357#2 44141357#3 44141357#4 44141276#0 44141276#1 -44141146#8 -744801991 798855531#2 798855529#3"/>
    </vehicle>
    <vehicle id="64" type="passenger" depart="640.00" departLane="best" departPos="random" departSpeed="max">
        <route edges="755068998#0 755068998#1 755068998#2 755068998#3 755068996 82946119#0 82946119#1 82946119#2 82946119#3 82946119#4 -1364873685#7 -82946131#2 -82946131#1 -82946131#0 44141357#6 44141357#8 44141357#9 44141357#10 44141357#11 44141357#12 44141357#13 44141545#2 -681792944#3 -776026192 681792944#2"/>
    </vehicle>
    <vehicle id="65" type="passenger" depart="650.00" departLane="best" departPos="random" departSpeed="max">
        <route edges="-48533136#1 48533136#1 -48532953#10 -48532953#9 -693912719#7 -1184991595#2 -1184991595#1 -1184991595#0 -1184991409#1"/>