<routes><vType id="car" accel="2.6" decel="4.5" sigma="0.5" length="5" minGap="2.5" maxSpeed="70" guiShape="passenger" /><vehicle id="veh0" type="car" depart="0.0"><route edges="1192927298 -292023765#0 -1203088403 -291877045 -44716380#8 -44716380#7 1185227775 -292027014#1 1185227776 164802176#0 164802176#1 164802159#1 164802159#2 164802159#3 46108373#10 46108373#11 46108373#12 46108373#13 -292024661#2 1136644105 36326993#0 36326993#1 1203038225#3 292025708 1239058047 -292024648#3 -292024650#2 -1239066197" /></vehicle><vehicle id="veh1" type="car" depart="10.0"><route edges="292025841 -292025754 -111218026#0 -111288362 -111288196#1 31059207#6 605698328#0 605698328#1 292027340#1 -292025546 -292025545 -1246779610 -1211234344 -292025083#2 -292025083#1 -292025083#0 -235103533#3 -235103533#2 292024882#0 292024882#1 292024882#2 292024882#3 292024880#1" /></vehicle><vehicle id="veh2" type="car" depart="20.0"><route edges="292027018 292027024 1080317752 292023915#0 292023915#1 1080439108 994830064#3 605698329#2 292027340#1 -292025546 -292025545 -1246779610 -1211234344 -292025083#2 -292025083#1 -292025083#0 -235103533#3" /></vehicle><vehicle id="veh3" type="car" depart="30.0"><route edges="605695087#13 -46108375#5 605695084#2 605695084#3 605695084#4 605695084#5 605695084#6 605695084#7 605695084#8 1246774345 1203088401#0 1203088401#1 1203088401#2 1203088401#3 1203088401#4 1203088401#5 1203088401#6 605698329#1 605698329#2 292027340#1 -292025546 -292025545 -1246779610 -1211234344 -292025083#2 -292025084#2 -292025084#1 292025078#4 1246781006#0" /></vehicle><vehicle id="veh4" type="car" depart="40.0"><route edges="776771535#1 776771535#2 46108379#1 46108379#2 46108379#3 46108379#4 46108379#5 -36326989#2 1184126821 1184126822#0 1184126822#1" /></vehicle><vehicle id="veh5" type="car" depart="50.0"><route edges="111218029#6 111218029#7 111218029#9 111218029#10 111218035#0 -111288196#4 -292025709 -292024648#4 -1239058047 -292025708 1136644106#0 1136644107#3 -1136644105 -292024661#1 292024663#1 -292024662#5" /></vehicle><vehicle id="veh6" type="car" depart="60.0"><route edges="-44716380#11 -44716380#10 -44716380#8 -44716380#7 1185227775 -292027014#1 -292027014#0 291878513#1 291878513#2 164802176#0 164802176#1 -164802170#1 -164802170#0 -1185237194#3 -1185237194#2" /></vehicle><vehicle id="veh7" type="car" depart="70.0"><route edges="292024704#0 292024704#1 292024665#1 -292024664#1 -292024664#0 -292024662#0 -46108373#12 -686633494#2 -686633494#1 1306335974#0 1306335974#1 -1306335973#1 -1306335973#0 292027025#1 -292027025#0 -1185227773 1185227772 1306335975 776773435 -46108373#11 -686616066 292027022#1 292027022#2 -1306335976 1080439108 994830064#3 605698329#2 292027340#1 -292025546 -292025545 -1246779610 -1211234344 -292025083#2 -292025083#1 -292025083#0 -235103533#3 292024872#5 292024872#6 1211234345 33050221#3 997648749#2 997648749#3 189304970#0 189304970#1 189304970#2" /></vehicle><vehicle id="veh8" type="car" depart="80.0"><route edges="423755579#8 567831194#0 1363977042#1 -682844000#0 682844000#1 1365739638#1 567831194#2 423755552#0 -1365044689 423755552#2 423755576#2 567831194#4 43540177#0 43540177#1 682964524 605696840#0 605696840#1 605696840#2 36326989#0 36326989#1 36326989#2 -46108379#5 -46108379#4 1185237198 292027390#0 292027390#1 292027390#2 1185237199 1306324995 164802157#0 164802157#1 164802157#2 -686641857 -292023421 164802167#2 1184583540#0 -1185258350 1080512081#1" /></vehicle><vehicle id="veh9" type="car" depart="90.0"><route edges="1076311571 423755579#4 423755579#5 423755579#6 423755579#8 567831194#0 567831194#1 -1365739638#1 -682844000#1 -682844000#0 682844000#2 1365044689 -423755552#0 567831194#3 567831194#4 43540177#0 43540177#1 682964524 605696840#0 605696840#1 605696840#2 605696840#3 605696840#4 605696840#5 605696840#6 1203038225#0 1203038225#1 1203038225#2 1203038225#3 1136644106#0 1136644106#1 1136644106#2 605698328#0 605698328#1 605698328#2 292025084#0 -292025078#3 -292025078#2" /></vehicle><vehicle id="veh10" type="car" depart="100.0"><route edges="-44680205#9 -44680205#8 -44680205#7 -44680205#5 -44680205#4 -44680205#3 -44680205#2 -44680205#1 -997648749#4 -189305183#4 -189305183#3 -189305183#2 -189305183#1 -189305183#0 44680203#9 44680203#11 -1214797371 44680203#12 -44680204#1 1203088401#3 -1185231634 -292023842#1 -292023842#0 -292023781#5 1185231635 1185231636 -292023765#2 -292023765#1 -292023765#0 -1203088403 -291877045 -44716380#8 -44716380#7 -44716380#5 -291878516#1 -291878516#0 -291878514#0 292023488#0 292023488#1 291877903#1" /></vehicle><vehicle id="veh11" type="car" depart="110.0"><route edges="-423755471#2 686636881#1 43540177#0 43540177#1 682964524 605696840#0 605696840#1 605696840#2 605696840#3 605696840#4 605696840#5 605696840#6 1203038225#0 1203038225#1 1203038225#2 46108373#1 46108373#2 46108373#3" /></vehicle><vehicle id="veh12" type="car" depart="120.0"><route edges="-292024903 -292024876#0 -292024873#0 -292024872#1 -292024872#0 -292024871#0 -292025083#3 1211234344 1246779610 292025545 292025546 -292027340#1 605698329#3 605698329#4 1136644107#1 1136644107#2 1136644107#3 36326993#0 36326993#1 36326993#2 36326993#3 36326993#4 46108378#1 46108378#2 46108379#0 46108379#1 1307402760 46108376 1076248780" /></vehicle><vehicle id="veh13" type="car" depart="130.0"><route edges="-46108373#9 -46108373#8 -46108373#7 -46108373#6 -46108373#5 1119782847 -1185237194#2 -1185237194#1 -1185237194#0 291877904#2 -291877902 1306326479#1 1306326480 -317580221#1 -317580221#0 686641857 164802157#3 164802157#4 164802157#5 -164802181 605696845#2 -164802174#1 -164802174#0 605696841#0 605696841#1 605696842#1 46108375#4 46108375#5 605695087#14 28616709#2 28616709#3" /></vehicle><vehicle id="veh14" type="car" depart="140.0"><route edges="605695084#1 605695084#2 605695084#3 605695084#4 605695084#5 605695084#6 605695084#7 -44716380#12 -44716380#11 -44716380#10 291877045 1203088403 292023765#0 -1192927298 -292023764#4 -291877127 -1203087601 -1246774349 -1185231631#0 -291868047#2 -291877163#1 291877475 291877474#1 1246774350 291877474#2 721571454#1 -721571454#0 291868047#0 292023821#0 292023764#1 292023764#2 292023819 292023781#4 1185231635 1185231636 -292023765#2 292023765#3 1203088401#5 292023848#0 292023848#1 292027010#0 292027010#1 292027010#2 292027010#3" /></vehicle><vehicle id="veh15" type="car" depart="150.0"><route edges="605695087#3 605695087#4 605695087#5 605695087#6 605695087#7 44716380#1 -369853361#1 -369853361#0 -164802172#0 -1080512081#1 1185258350 -1184583581 291877904#5 1306326480 317580221#2 317580220 -164802157#1 -994832892 -46108379#2 1307402760 46108376 1076248780 -1307402759 -1184126822#1 -1184126822#0 -1184126821 -36326989#1 -36326989#0 605696840#3 1239031522 686638462#0 773571761#0" /></vehicle><vehicle id="veh16" type="car" depart="160.0"><route edges="-44680205#7 -44680205#5 -44680205#4 -44680205#3 -44680205#2 -44680205#1 -997648749#4 -189305183#4 -189305183#3 -189305183#2 -189305183#1 -189305183#0 44680203#9 189305179 44680203#11 -1214797371 44680203#12 -44680204#1 1203088401#3 -1185231634 -292023842#1 -292023842#0 -292023781#5 1185231635 1185231636 -292023765#2 -292023765#1 -292023765#0 -1203088403 -291877045 -44716380#8 -44716380#7 1185227775 -292027014#1 -292027014#0 291878513#1 291878513#2 164802176#0 164802176#1 -164802170#1 -164802170#0 -1185237194#3 -1185237194#2 -1185237194#1 -1185237194#0" /></vehicle><vehicle id="veh17" type="car" depart="170.0"><route edges="46108375#1 46108375#2 46108375#3 -605696842#1 -605696842#0 -605696845#0 292027393#0 292027393#1 292027394#0 1306324404 292027394#1 1136372533 164802157#3 -1184583658 164802167#4 164802167#5 164802167#6 164802167#7" /></vehicle><vehicle id="veh18" type="car" depart="180.0"><route edges="-292025076#0 605695081#3 33050221#5 605695087#0 605695087#1 605695087#2 605695087#3 605695087#4 605695087#5 -44716380#12 -44716380#11" /></vehicle><vehicle id="veh19" type="car" depart="190.0"><route edges="235103533#3 1237997084 -292025077#1 -292025077#0 605698328#5 605698328#6 605698329#1 -994830064#3 -994830064#1 -1080439106#1 1184582302 -292027012#0 -292027010#2 -292027013#1 -292027013#0 -291878513#2 -291878513#1 -291878513#0 -291878516#0 -291878514#0 292023488#0 292023488#1 291877903#1 291877904#5 1306326480 -317580221#1 -317580221#0 686641857 -1136372533" /></vehicle><vehicle id="veh20" type="car" depart="200.0"><route edges="1239030821#0 -1137221549#0 686638459 605696840#2 605696840#3 605696840#4 605696840#5 605696840#6 1203038225#0 1203038225#1 1203038225#2 1203038225#3 1136644106#0 1136644106#1 1136644106#2 605698328#0 605698328#1 605698328#2 292025084#0 -292025078#3" /></vehicle><vehicle id="veh21" type="car" depart="210.0"><route edges="-292027391#1 164802157#0 776771535#0 994832893#0 994832893#1 291877904#0 1185237194#0 1185237194#1 1306331919 1185237194#2 1185237194#3 164802170#0 164802170#1 292027345 -292027022#2" /></vehicle><vehicle id="veh22" type="car" depart="220.0"><route edges="-292023622 -1086239052#2 -1246776873 -1086239052#1 -1086239052#0 -369853361#0 -164802172#0 -1080512081#1 -1185258351 -164802167#4 1184583658 164802157#4 164802157#5 -164802181 -994832901 605696841#1 605696842#1 -46108375#3 -46108375#2 686661946#0 686678115#0 -1306878804 686678115#1 686678115#2 686678114#0 686678114#1 686678114#2 292027393#1 292027393#2 292027391#5 292027391#6 686646774#0 -773751373 773751372 46108379#9 46108379#10 579272351#2 423755579#8 567831194#0 1363977042#1" /></vehicle><vehicle id="veh23" type="car" depart="230.0"><route edges="-46108379#9 -46108379#8 -46108379#7 -46108379#5 -46108379#4 -46108379#3 -46108379#2 -46108379#1 -46108379#0 46108380#0 46108380#1 46108380#2 46108380#3 46108373#4 46108373#5 46108373#6 46108373#7 46108373#8 46108373#9 46108373#10 46108373#11 -686633494#2 -686633494#1 -686633494#0 -1185227772 -1185227773 292027025#0 292027025#1 1306335973#0 1306335975 1306335973#1 1306335974#1 776773435 46108373#12 46108373#13 46108373#14 1136644106#1 1136644106#2 605698328#0 605698328#1 292027340#1 -292025546 -292025545 -1246779610 -1211234344 292025083#3 292024871#0 292024872#0" /></vehicle><vehicle id="veh24" type="car" depart="240.0"><route edges="-292025667#0 -292025663#0 1203038225#0 1203038225#1 1203038225#2 1203038225#3 1136644106#0 1136644106#1 1136644106#2 605698328#0 605698328#1 292027340#1 -292025546 -292025545 -1246779610 -1211234344 -292025083#2 -292025083#1 -292025083#0 -235103533#3 -235103533#2 -235103533#1 -1246781004#1 -1246781004#0 1237997082#1 1237997082#2 1237997082#3 29534879#5 29534879#6 29534879#7 29534879#8 -1214792661#1 -1214792661#0 -1237199970 -1237199969 29534879#9 565464672 80515454 565464671 80515444#2 80515444#3 80515444#4 80515444#5 80515444#6 80515444#7 80515444#8 46323888#0 780228741#3 780228741#4 1088110482#1 705415571 46323888#1 1237995791#1 423865112#0 -423865146 423865112#1 -596967656 46323888#2 46323888#4 1062054745 -1162392787 683766478#0 683766478#1 691886300 -31756505#6 -31756505#5 -31756505#4 -31756505#3 -31756505#2 -31756505#1 -31756505#0 29534879#10 29534879#11 654175709#0 654175709#1 654175709#2 654175709#3 582367349#0 582367349#3 44315452 582367349#4 706373732 -1211234342#2 -1211234342#1 -1211234343 -1246778611 -292024903 292024876#1 292024880#0 -292024882#3 -292024882#2 -292024882#1 -292024878 -292024872#3 292024875#0 -292024876#3 -292024872#2 292024873#0 292024873#1 292024873#2 1246779611 1190347818 292024874#1 -292024874#0 -292024872#0 -292024871#0 292024880#1 292024880#2 292024877#1 -292024877#0 292024872#6 1211234345 33050221#3 997648749#2 997648749#3 189304970#0 189304970#1 189304970#2 189304970#3 -189304973 44680205#5 44680205#7 44680205#8 44680205#9" /></vehicle><vehicle id="veh25" type="car" depart="250.0"><route edges="-292023821#0 291868047#0" /></vehicle><vehicle id="veh26" type="car" depart="260.0"><route edges="-291877904#2 1185237194#0 1185237194#1 1185237194#2 1185237194#3 164802170#0 164802170#1 -164802176#1 292027016 1184582476#1 -292027010#3" /></vehicle><vehicle id="veh27" type="car" depart="270.0"><route edges="-1203087601 1246774348#1 -44716380#8 -44716380#7 1185227775 -292027014#1 -292027014#0 291878513#1 291878513#2 164802176#0 164802176#1 164802159#1 164802159#2 164802159#3 -46108373#9 -46108373#8 -46108373#7 -46108373#6 -46108373#5 -46108373#4 -46108380#3 -46108380#2 -46108380#1 -46108380#0 -46108378#2 -46108378#1 36326993#5 605696840#3 1239031522 -686638462#6" /></vehicle><vehicle id="veh28" type="car" depart="280.0"><route edges="-924403692 -686555584#1 1190516864 292024664#1 292024664#2 -292024706#0 46108373#7 46108373#8 292024331 46108373#9 -164802159#3 -164802159#2 -164802159#1 -164802176#1 292027016 1184582476#1 292027010#4 -292027010#3 292027012#0 292027012#1 1080439109 292023848#1 292027010#0 292027011 292027010#1 -292027013#1 -292027013#0 -1185227776 292027014#1 -1185227775 44716380#7 44716380#8 44716380#10 -1185231632 -1185231631#1 -1185231631#0 -291868047#2 -291868047#1 -291868047#0 292023821#0 292023764#1" /></vehicle><vehicle id="veh29" type="car" depart="290.0"><route edges="-1307402760 -46108379#1 -46108379#0 46108380#0 46108380#1 46108380#2 46108380#3 46108373#4 46108373#5 46108373#6 46108373#7 46108373#8 292024331 46108373#9 46108373#10 46108373#11 -686633494#2 -686633494#1 -686633494#0 -1185227772 -1185227773 292027025#0 292027025#1 1306335973#0 1306335975 1306335973#1 1306335974#1 776773435 46108373#12 46108373#13 46108373#14 1136644106#1 1136644106#2 605698328#0 605698328#1 292027340#1 -292025546 -292025545 -1246779610 -1211234344 -292025083#2 -292025083#1 -292025083#0 -235103533#3 -292024872#4 -292024872#3 292024875#0 -292024876#3" /></vehicle><vehicle id="veh30" type="car" depart="300.0"><route edges="-46108373#3 -46108373#2 292024661#0 292024661#1 292024661#2 46108373#14 1136644106#1 1136644106#2 605698328#0 605698328#1 292027340#1 -292025546 -292025545 -1246779610 -1211234344 292025083#3 292024871#0 292024871#1 292024874#1 -1190347818 292024873#2 1246779611 1211234342#0 -1211234343 -1246778611 -292024903 -292024876#0 -292024873#0 -292024872#1 292024872#2 292024875#0 292024875#1 292024882#2 292024882#3 292024880#1 292024880#2 -292024880#0 292024876#2 -292024882#1 -292024882#0 -235103533#1 1246781005 -1246781004#1 292024877#1 -1246781004#0 1237997082#1 706373732 -1211234342#2 1237997082#2 1237997082#3 29534879#5 29534879#6 29534879#7 29534879#8 29534879#9 565464672 80515454 565464671 80515444#2 683766478#0 691886300 -31756505#6 -31756505#5" /></vehicle><vehicle id="veh31" type="car" depart="310.0"><route edges="292025080 -292025076#0 605695081#3 33050221#5 605698329#1 -994830064#3 -994830064#1 -1080439106#1 1184582302 -292027012#0 292027010#3 -1184582476#1" /></vehicle><vehicle id="veh32" type="car" depart="320.0"><route edges="-292023421 -164802167#1 -164802167#0 -291877904#5 -291877903#1 -292023488#1 -292023488#0 291878514#0 291878514#1 164802170#1 292027345 292027022#3 292027015#0 292027017" /></vehicle><vehicle id="veh33" type="car" depart="330.0"><route edges="-292024662#0 -46108373#12 -686633494#2 -686633494#1 -686633494#0" /></vehicle><vehicle id="veh34" type="car" depart="340.0"><route edges="579272354#1 682964487#0 682964487#1 605696840#0 605696840#1 605696840#2 36326989#0 36326989#1 36326989#2 -46108379#5 -46108379#4 -46108379#3 994832892 776771535#0 994832893#0 994832893#1 291877904#0 1185237194#0 291877903#0 -292023488#1 -292023488#0 291878514#0 291878516#0 291878516#1 44716380#5 44716380#7 44716380#8 -1246774348#1 1203087601 291877127 -292023764#3 292023819 -292023781#3 -292023781#2 -292023781#1 -292023781#0 -1246774346 1203088401#0 1203088401#1 1203088401#2 44680204#1 -44680203#12 -44680203#11 -44680203#9 -44680203#8 -44680203#7 -44680203#6" /></vehicle><vehicle id="veh35" type="car" depart="350.0"><route edges="-292024330 1185237195 292027020 1185237196 -46108373#5 -46108373#4 -46108380#3 -46108380#2 -46108380#1 -46108380#0 -46108378#2 -46108378#1 36326993#5 605696840#3 605696840#4 773571759" /></vehicle><vehicle id="veh36" type="car" depart="360.0"><route edges="605698329#3 605698329#4 1136644107#1 1136644107#2 1136644107#3 -1136644105 -292024661#1 292024663#1 -292024662#5 -292024662#4" /></vehicle><vehicle id="veh38" type="car" depart="380.0"><route edges="-1365044689 -682844000#2 -682844000#1 -1363977042#1 567831194#1 567831194#2 567831194#3 567831194#4 43540177#0 43540177#1 682964524 605696840#0 605696840#1 605696840#2 36326989#0 36326989#1 36326989#2 -46108379#5 -46108379#4 -46108379#3 994832892 776771535#0 994832893#0 994832893#1 291877904#0 1185237194#0 1185237194#1 1185237194#2 1185237194#3 164802170#0 164802170#1 -164802176#1 292027016 -1184582476#0" /></vehicle><vehicle id="veh39" type="car" depart="390.0"><route edges="164802174#6 292023420 1080512081#1 164802172#0 164802172#1 164802172#2" /></vehicle><vehicle id="veh40" type="car" depart="400.0"><route edges="686638462#6 686638462#0 773571761#0 773571761#1 -773571759 605696840#5 605696840#6 1203038225#0 1203038225#1 1203038225#2 1203038225#3 1136644106#0 1136644106#1 1136644106#2 605698328#0 605698328#1 292027340#1 -292025546 -292025545 -1246779610 -1211234344 -292025083#2 -292025083#1 -292025083#0 -235103533#3 -292024872#4 -292024872#3 292024875#0 -292024876#3 -292024876#2" /></vehicle><vehicle id="veh41" type="car" depart="410.0"><route edges="-997648749#3 -997648749#2 605695081#5 1237997082#0 1246781004#0 1246781004#1 1246781005 235103533#1 292024882#0 292024882#1 292024882#2 292024882#3 292024880#1 292024880#2 -292024880#0 -292024876#1 292024903 1246778611 1211234343 -1211234342#0 -1246779611 -292024873#2 1190347818 292024874#1 -292024871#1 292024872#0 292024872#1 292024873#0 292024872#2 292024875#0 -292024876#3 292024872#3 292024872#4 235103533#3 292025083#0 292025083#1 292025083#2 292025083#3 1211234344 1246779610 292025545 292025546 -292027340#1 605698328#2 292025084#0 292025084#1 -1246781008 -292025076#2 -292025076#1 -292025080 292024872#6 -292025076#0 -292025077#1 292025078#2 -292025081 -292025078#1 -292025078#0 -292025079 605698328#6 605698329#1 -994830064#3 -1080439108 -292023915#1 994830064#0 -1080439106#1 -1080439106#0 1080439109 -292023848#0 292023848#1 292027010#0 292027011 292027010#1 292027010#2 292027012#0 292027010#3 292027010#4 -1184582476#1 -292027015#2 292027018 292027024 1080317752 -292027017 -292027015#0 -292027022#3 -292027022#2 -292027022#1 686616066 46108373#11 -686633494#2 -686633494#1 -686633494#0 -1185227772 -1185227773 292027025#0 292027025#1 1306335973#0 1306335973#1 1306335974#1 1306335975 776773435 46108373#12 46108373#13 46108373#14 1136644106#1 1136644106#2 605698328#0 682964522#0 682964522#1 682964522#2 -111218029#13 -111288362 111288196#2 235103461#0 -1239051719 292025709 111288196#4 -111218035#0 -111218029#10 -111218029#9 -292025754 111218026#1 111218026#2 -111218029#1 31059207#1 31059207#2 31059207#3 682964522#4 682964522#5 111218029#2 111218029#4 111218029#6 1120528080 1120528078 1120528081 -292025841 292025840#1 111218035#1 1122281742 1239066196 1239066197 292024650#2 292024648#3 -1239058047 1239058046 -292025708 -292024648#2 -1239060421 292025707#1 -292025707#0 -292024648#1 292024650#0 1239066198 292024649#1 -292024649#0 1239066199 111218035#2 -292025685#1 -292025685#0 686594498#0 1203038225#2 46108373#1 292024661#0 292024661#1 1136644105 36326993#0 292024663#1 -292024662#5 -292024662#4 -292024662#3 -292024662#2 -292024662#1 292024664#0 -1190516864 686555584#1 924403692 292024664#1 -292024665#1 -292024704#1 -292024706#1 -292024706#0 46108373#7 46108373#8 46108373#9 -164802159#3 -164802159#2 -164802159#1 -164802170#1 -291878514#1 291878516#0 291878513#0 292027014#0 1185227776 292027013#0 164802176#0 -291878513#2 292027014#1 -1185227775 44716380#7 44716380#8 291877045 1203088403 292023765#0 292023765#1 292023765#2 292023765#3 -1185231636 -1185231635 292023781#5 292023842#0 292023842#1 1185231634 -292023781#4 -292023781#3 -292023781#2 -292023781#1 -292023781#0 -1246774346 1203088401#0 1203088401#1 1203088401#2 44680204#1 -44680203#12 -1214797371 -44680203#11 189305179 -44680203#9 189305183#0 189305183#1 189305183#2 189305183#3 997643075 -44680203#0 -997648749#5 44680205#1 44680205#2 -189304964#0 44680205#3 44680205#4 189304973 -189304970#3 -189304970#2 -189304970#1 44680205#5 1121201398 44680205#7 44680205#8 1184124545 44680205#9 684948940#0 292025238#1 684948940#1 684948940#2 684948939 29534879#3 29534879#4 29534879#5 29534879#6 29534879#7 29534879#8 -1214792661#1 -1214792661#0 -1237199970 -1237199969" /></vehicle><vehicle id="veh42" type="car" depart="420.0"><route edges="292023781#1 292023781#2 292023781#3 292023781#4 1185231635" /></vehicle><vehicle id="veh43" type="car" depart="430.0"><route edges="1306335976 -292027345 -164802176#1 -164802176#0 -291878513#2 -291878513#1 -291878513#0 -291878516#0 -291878514#0" /></vehicle><vehicle id="veh44" type="car" depart="440.0"><route edges="1203038225#3 1136644106#0 -46108373#14 -46108373#13 -46108373#12 -686633494#2 -686633494#1 1306335974#0 1306335974#1 -1306335973#1 1306335975 -1306335973#0 292027025#1 -292027025#0 -1185227773 1185227772 776773435 -46108373#11 -686616066 292027022#1 292027022#2 -1306335976 1080439108 1080439107 -994830064#1 -1080439106#1 -1080439106#0" /></vehicle><vehicle id="veh45" type="car" depart="450.0"><route edges="-1185258351 -164802167#4 1184583658 -164802157#3 -1136372533 -292027394#1 -292027394#0 292027393#2 292027391#5 292027391#6 686646774#0 686646774#1" /></vehicle><vehicle id="veh46" type="car" depart="460.0"><route edges="44680203#2 44680203#3 44680203#4 44680203#5 44680203#6 44680203#7 44680203#8 44680203#9 44680203#11 44680203#12 -44680204#1 1203088401#3 -1185231634 -292023842#1 -292023842#0 -292023781#5 -292023781#4 -292023819 292023764#3 292023764#4 1192927298 -292023765#0 -1203088403 -1246774347 1203087601 291877163#0 291877475 291877474#1" /></vehicle><vehicle id="veh47" type="car" depart="470.0"><route edges="-773057400#0 -46108380#1 -46108380#0 46108379#0 46108379#1 46108379#2 46108379#3 46108379#4 46108379#5 46108379#7" /></vehicle><vehicle id="veh48" type="car" depart="480.0"><route edges="-111218029#11 111218035#0 111218035#1 111218035#2 -292025685#1" /></vehicle><vehicle id="veh49" type="car" depart="490.0"><route edges="292025080 292025076#1 292025076#2 1246781008 -292025084#1 292025078#4 1246781006#0" /></vehicle><vehicle id="veh50" type="car" depart="500.0"><route edges="-292025667#0 -292025663#0 1203038225#0 1203038225#1 1203038225#2 1203038225#3 1136644106#0 -46108373#14 -46108373#13 -46108373#12 -46108373#11 -686616066 292027022#1 292027022#2 -1306335976 1080439108 1080439107 -994830064#1 -1080439106#1 1184582302 292027012#1 1080439109 292023848#1 292027010#0 292027011 292027010#1 292027010#2 292027010#3 292027010#4 -1184582476#1 -1184582476#0 -292027013#0 -1185227776 292027014#1 -1185227775 44716380#7 44716380#8 44716380#10 -1185231632 -1185231631#1 -1185231631#0 -291868047#2 -291868047#1 -291868047#0" /></vehicle><vehicle id="veh51" type="car" depart="510.0"><route edges="1307402760 46108376 1076248780 -1307402759 -1184126822#1 1184126823 -1184126822#0 -1184126821 -36326989#1 -36326989#0 605696840#3 605696840#4 605696840#5 605696840#6 292025663#0 292025663#1 292025663#2 -292025667#2 -292025667#1 292025665 292025684 1203038225#0 1203038225#1 -686594498#0 292025685#0 292025685#1 -111218035#2 -111218035#1 -111218035#0 111218029#11 111218026#0 111218026#1 111218026#2 111218029#2" /></vehicle><vehicle id="veh52" type="car" depart="520.0"><route edges="-111218029#13 -111218029#11 111218035#0 111218035#1 111218035#2 -292025685#1 -292025685#0 686594498#0 36326993#3 36326993#4 36326993#5 36326989#0 36326989#1 36326989#2 46108379#7 -686646774#2 -686646774#1 -686646774#0" /></vehicle><vehicle id="veh53" type="car" depart="530.0"><route edges="579272354#1 682964487#0 682964487#1 605696840#0 605696840#1 605696840#2 36326989#0 36326989#1 36326989#2 -46108379#5 -46108379#4 -46108379#3 994832892 776771535#0 994832893#0 994832893#1 291877904#0 1185237194#0 1185237194#1 1185237194#2 1185237194#3 164802170#0 164802170#1 -164802176#1 292027016 1184582476#1 -292027010#3 -292027010#2" /></vehicle><vehicle id="veh54" type="car" depart="540.0"><route edges="1184583540#1 -1184583581 -291877903#1 -292023488#1 -292023488#0 291878514#0 291878516#0 291878516#1 44716380#5 44716380#7 44716380#8 44716380#10 -1185231632 -1185231631#1 -1185231631#0 -291868047#2 -291868047#1 -291868047#0 292023821#0 292023821#1 292023781#2" /></vehicle><vehicle id="veh55" type="car" depart="550.0"><route edges="605698328#6 605698329#1 -994830064#3 -994830064#1 -1080439106#1 1184582302 -292027012#0 -292027010#2 -292027013#1 -292027013#0 -291878513#2 -291878513#1 -291878513#0 -291878516#0 -291878514#0 292023488#0 292023488#1 291877903#1 291877904#5 1306326480 -317580221#1 -317580221#0 686641857 -1136372533 -292027394#1 -292027394#0 -292027393#1 -686678114#2 -1184615056 -1306878804 686678115#1 686678115#2 686678115#3 605696842#1 -46108375#3 -46108375#2 686661946#0 686661946#1 -292027391#5 -292027391#4 1184617300#0 1184617300#1 -1306323645 1184617300#2 292027390#1 292027390#2 1185237199 292027391#1 292027391#2 292027392 1306324405 1306324995 164802157#0 164802157#1 -317580220 776771535#0 994832893#0 994832893#1 1306326479#0 291877902 -291877904#2 1185237194#0 1185237194#1 1185237194#2 1185237194#3 164802170#0 164802170#1 -164802176#1 292027016 -292027015#2 -292027015#1 -292027015#0 -292027022#3 -292027022#2 -292027344 164802159#2 164802159#3 -46108373#9 -46108373#8 -46108373#7 -46108373#6 -46108373#5 -46108373#4 -46108380#3 -46108380#2 -46108380#1 -46108380#0 46108379#0 46108379#1 46108379#2 46108379#3 46108379#4 46108379#5 46108379#7 46108379#8 -773751372 773751373 -686646774#0 686646774#1 46108379#9 46108379#10 579272351#2 423755579#8" /></vehicle><vehicle id="veh56" type="car" depart="560.0"><route edges="-164802159#1 -164802176#1 292027016 1184582476#1 292027010#4 -292027010#3 292027012#0 292027012#1 1080439109 -292023848#0 1203088401#6 605695087#0 1203088401#3 -1185231634 -292023842#1 -292023842#0 -292023781#5" /></vehicle><vehicle id="veh57" type="car" depart="570.0"><route edges="1237997084 -292025077#1 -292025077#0 605698328#5 605698328#6 605695087#0 1203088401#3 -1185231634 -292023842#1 -292023842#0 -292023781#5 -292023781#4 -292023819 292023764#3 292023764#4 1192927298 -292023765#0 -1203088403 -1246774347 1203087601 291877163#0 291877475 291877474#1 291877474#2" /></vehicle><vehicle id="veh58" type="car" depart="580.0"><route edges="292025238#0 292025238#1 33050221#2 33050221#3 33050221#5 605698329#1 -994830064#3 -994830064#1 -1080439106#1 1184582302 -292027012#0 -292027010#2 -292027013#1 -292027013#0 -291878513#2 -291878513#1 -291878513#0 -291878516#0 -291878514#0 292023488#0 292023488#1 291877903#1 291877904#5 1306326480 317580221#2 317580220 -164802157#1 -164802157#0 -1185237199 -292027390#2" /></vehicle><vehicle id="veh59" type="car" depart="590.0"><route edges="-1076248781#0 1076248781#1 -36326990 36326989#1 36326989#2 -46108379#5 -46108379#4 -46108379#3 994832892 776771535#0 994832893#0 994832893#1 291877904#0 1185237194#0 1185237194#1 1185237194#2 1185237194#3 164802170#0 164802170#1 292027345 -1306335976 1080439108 994830064#3 605698329#2 292027340#1 -292025546 -292025545 -1246779610 -1211234344 -292025083#2 -292025083#1 -292025083#0 -235103533#3 -235103533#2 -235103533#1 -1246781004#1 -1246781004#0 1237997082#1 1237997082#2 1237997082#3 29534879#5 29534879#6 29534879#7 29534879#8 -1214792661#1 -1214792661#0 -1237199970 -1237199969 29534879#9 565464672 80515454 565464671 80515444#2 80515444#3 80515444#4 80515444#5 80515444#6 80515444#7 80515444#8 46323888#0 780228741#3 780228741#4 1088110482#1 705415571 46323888#1 1237995791#1 423865112#0 -423865146 423865112#1 -596967656 46323888#2 46323888#4 1062054745 -1162392787 683766478#0 683766478#1 691886300 -31756505#6 -31756505#5 -31756505#4 -31756505#3 -31756505#2 -31756505#1 -31756505#0 29534879#10 29534879#11 654175709#0 654175709#1 654175709#2 654175709#3 582367349#0 582367349#3 44315452 582367349#4 706373732 -1211234342#2 -1211234342#1 -1211234343 -1246778611 -292024903 292024876#1 292024880#0 -292024882#3 -292024882#2 -292024882#1 -292024878 -292024872#3 292024875#0 -292024876#3 -292024872#2 292024873#0 292024873#1 292024873#2 1246779611 1190347818 292024874#1 -292024874#0 -292024872#0 -292024871#0 292024880#1 292024880#2 292024877#1 -292024877#0 292024872#6 1211234345 33050221#3 997648749#2 997648749#3 189304970#0 189304970#1 189304970#2 189304970#3 -189304973 44680205#5 44680205#7 44680205#8 44680205#9" /></vehicle><vehicle id="veh60" type="car" depart="600.0"><route edges="111218029#11 111218029#13" /></vehicle><vehicle id="veh61" type="car" depart="610.0"><route edges="292027394#0 292027394#1 1136372533 -686641857 -292023421 -164802167#1 -164802167#0 -291877904#5 -291877903#1 -292023488#1 -292023488#0 291878514#0 291878514#1 164802170#1 292027345 -1306335976 1080439108 994830064#3 605698329#2 292027340#1 -292025546 -292025545 -1246779610 -1211234344 292025083#3 292024871#0 292024871#1" /></vehicle><vehicle id="veh62" type="car" depart="620.0"><route edges="164801128#0 164801128#1 682964487#0 682964487#1 605696840#0 605696840#1 605696840#2 605696840#3 1239031522 686638462#0 686638462#1" /></vehicle><vehicle id="veh63" type="car" depart="630.0"><route edges="1239066197 292024650#2 -292024648#2 -1239060421 -292025707#0 292025707#1 -292024648#1 -292024648#0 -1239066199 292024649#0 -1239066198 292024649#1 292024648#3 -1239058047 -292025708 1136644106#0 1136644107#3 -1136644105 -292024661#1 292024663#1 292024663#2 292024663#3 292024704#0 -292024706#1 -292024706#0 -46108373#6 -46108373#5 1119782847 -1185237194#2 -1185237194#1 291877903#0 291877903#1 1184583581 -1185258350" /></vehicle><vehicle id="veh64" type="car" depart="640.0"><route edges="-1246779611 -292024873#2 -292024873#1 -292024873#0 292024872#2 292024872#3 292024872#4 235103533#3 1237997084 -292025077#1 -292025077#0 605698328#5 605698328#6 605698329#1 -994830064#3 -994830064#1 -1080439106#1 1184582302 -292027012#0 -292027010#2 -292027013#1 -292027013#0 