<?xml version="1.0" encoding="UTF-8"?>

<!-- generated on 2025-07-18 20:42:41.194326 by randomTrips.py v1_23_1+0000-676720d13f6
<configuration>
    <net-file value="../cp2.net.xml"/>
    <output-trip-file value="astar_trips.xml"/>
    <trip-attributes value="departLane='best' departSpeed='max' departPos='random'"/>
    <vehicle-class value="passenger"/>
    <validate value="True"/>
    <end value="1000.0"/>
    <period value="10.0"/>
</configuration>
-->

<!-- generated on 2025-07-18 20:42:41 by Eclipse SUMO duarouter Version 1.23.1
<duarouterConfiguration xmlns:xsi="http://www.w3.org/2001/XMLSchema-instance" xsi:noNamespaceSchemaLocation="http://sumo.dlr.de/xsd/duarouterConfiguration.xsd">

    <input>
        <net-file value="../cp2.net.xml"/>
        <route-files value="astar_trips.xml"/>
    </input>

    <output>
        <output-file value="routes.rou.xml"/>
        <alternatives-output value="NUL"/>
    </output>

    <time>
        <begin value="0.0"/>
        <end value="1000.0"/>
    </time>

    <report>
        <no-warnings value="true"/>
        <ignore-errors value="true"/>
        <no-step-log value="true"/>
    </report>

</duarouterConfiguration>
-->

<routes xmlns:xsi="http://www.w3.org/2001/XMLSchema-instance" xsi:noNamespaceSchemaLocation="http://sumo.dlr.de/xsd/routes_file.xsd">
    <vType id="passenger" vClass="passenger"/>
    <vehicle id="0" type="passenger" depart="0.00" departLane="best" departPos="random" departSpeed="max">
        <route edges="24584377#4 24584377#5 24584377#6 24584377#7 24584377#8 24584377#9 447141152 570526053 447141150#0 447141150#1 447141149#0 447141149#1 447141149#2 1219699878#0 1219699878#1 1219699878#2 1219699880 24583330#0 24583330#1 24583330#2 24583330#3 24583330#4 24583330#5 24583330#6 24583330#7 24583330#8 615556515#0 615556515#1 615556515#2 564223494#0 564223494#1 564223494#2 564223494#3 554665389#0 554665389#1 554665389#2 578543604 578543606 730111073#0 730111073#1 730111073#2 446922590#0 446922590#1 446922590#2 446922590#3 446922590#4 446922590#5 446922590#6 596346055#0 596346055#1 596346055#2 1252826818#0 1252826818#1 1252826818#2 1252826818#3 1252826818#4 1252826818#5 38699586#0 38699586#1 265975963#1 265975963#2 265975963#3 -1306141818#1 -1306141818#0 -265975966#5 1312753969#0 1076782194#0 -1076782195#0"/>
    </vehicle>
    <vehicle id="1" type="passenger" depart="10.00" departLane="best" departPos="random" departSpeed="max">
        <route edges="-577982260#5 -577982260#4 -577982260#3 -577982260#2 -577982260#1 -577982260#0 577982260#0 577982260#1 577982260#2 577982260#3 577982260#4 577982260#5 577982260#6 577982260#7 998790355#1 998790354#0 998790354#1 998790354#2 998790354#3 998790354#4 998790354#5 998790354#6 998790354#7 998790352#0 998790352#1 116046167#0 116046167#1 116046167#2 116046167#3 116046167#4 116046167#5 116046167#6 116046167#7 116046167#8 116046167#9 579781481#0 579781481#1 579781481#2 579781481#3 579781481#4 579781481#5 579781481#6 579781481#7 579781481#8 579781481#9 579781481#10 579781481#11 570616027 23133709#0 23133709#1 23133709#2 23133709#3 23133709#4 23133709#5 562340241 562340248#0 562340248#1 564223496#0 564223496#1 578543605 564223494#0 564223494#1 564223494#2 564223494#3 554665389#0 554665389#1 554665389#2 578543604 578543606 80414533#0 80414533#1 -154090267#3 -154090267#2 -154090267#1 -154090267#0 -38235041#6"/>
    </vehicle>
    <vehicle id="2" type="passenger" depart="20.00" departLane="best" departPos="random" departSpeed="max">
        <route edges="44263457#1 -44263457#1 773816586#0 773816586#1 773816586#2 615556519#9 615556519#10 -24584373#11 -24584373#10 -24584373#9 -24584373#8 -24584373#7 -24584373#6 -24584373#5 -24584373#4 -24584373#3 -24584373#2 -24584373#1 -24584373#0 80926759#4 686925959 -38235041#7 -686878276 293153163#0"/>
    </vehicle>
    <vehicle id="3" type="passenger" depart="30.00" departLane="best" departPos="random" departSpeed="max">
        <route edges="714986188#2 446922590#0 446922590#1 24577486#0 24577486#1 24577486#2 24577486#3 24577486#4 23133486#24 23133486#25 23133486#26 23133486#0 23133486#1 23133486#2 23133486#3 23133486#4 23133486#5 23133486#6 23133486#7 23133486#8 23133486#9 23133486#10 23133486#11 24577488#0 24577488#1 24577488#2 24577488#3 24577488#4 24577488#5 24577488#6 24577488#7 24583332#0 24583332#1 24583332#2 24583332#3 24583332#4 24583332#5 24583332#6 24583332#7 24583332#8 24583332#9 24583332#10 24583332#11 24583332#12 24583332#13 24583332#14 24583332#15 24583332#16 24583332#17 554665390 570526052 24583320 24584375#0 24584375#1 -24584383#0 -1354558617"/>
    </vehicle>
    <vehicle id="4" type="passenger" depart="40.00" departLane="best" departPos="random" departSpeed="max">
        <route edges="1122215529#0 -1122215529#0 24583330#3 24583330#4 24583330#5 24583330#6 24583330#7 24583330#8 615556515#0 615556515#1 615556515#2 564223494#0 564223494#1 564223494#2 564223494#3 554665389#0 554665389#1 554665389#2 578543604 578543606 730111073#0 730111073#1 730111073#2 446922590#0 446922590#1 446922590#2 446922590#3 446922590#4 446922590#5 446922590#6 596349216 572511732#0 572511732#1 572511732#2 572511732#3 572511732#4 24582917#0 24582917#1 24582917#2 24582917#3 1076510349#0 1076510349#1 1076510349#2 1153925787#1 1153925787#2 1153925787#3 1153925787#4 74851423#0 74851423#1 74851423#2 74851423#3 74851423#4 74851423#5 74851423#6 74851423#7 700293876#1 -1121139432#1"/>
    </vehicle>
    <vehicle id="5" type="passenger" depart="50.00" departLane="best" departPos="random" departSpeed="max">
        <route edges="-319329101#6 319329101#6 319329101#7 319329101#8 319329101#9 319329101#10 319329101#11 80926759#4 80926759#5 80926759#6 80926759#7 578543606 730111073#0 730111073#1 730111073#2 446922590#0 446922590#1 446922590#2 446922590#3 446922590#4 446922590#5 446922590#6 596349216 572511732#0 572511732#1 572511732#2 572511732#3 572511732#4 572511732#5 572511732#6 572511732#7 572511732#8 446922591 760480737 578543603#1 578543603#2 578543603#3 578543603#4 578543603#5 578543603#6 578543603#7 523568284#0 523568284#1 523568284#2 523568284#3 -1123316542 997761541#2 997761541#3 561672574#0 561672574#1 561672574#2 142865883#0 142865883#1"/>
    </vehicle>
    <vehicle id="6" type="passenger" depart="60.00" departLane="best" departPos="random" departSpeed="max">
        <route edges="-1076782195#1 -1076782194#0 1312753969#1 665921720 665921719 665921717 1312753970#0 1312753970#1 1312753970#2 1312753970#3 996679780#0 996679781#3 80499778#0 80499778#1 80499778#2 80499778#3 80499778#4 80499778#5 80499778#6 562340247#0 562340247#1 562340247#2 562340247#3 562340247#4 562340247#5 562340245 23133709#0 23133709#1 23133709#2 23133709#3 23133709#4 23133709#5 562340241 562340248#0 562340248#1 564223496#0 564223496#1 578543605 564223494#0 564223494#1 564223494#2 564223494#3 554665389#0 554665389#1 554665389#2 125453679#0 125453679#1 125453679#2 -24584373#0 -319329101#11 -319329101#10 -319329101#9 -319329101#8 -38235349#3 993538737 -293153156#0 -293153141#1 -293153145#1 -293153159#0"/>
    </vehicle>
    <vehicle id="7" type="passenger" depart="70.00" departLane="best" departPos="random" departSpeed="max">
        <route edges="24584385#2 -80926764#4 -80926764#3 695569947 758753881#1 758753882 590609994#0 590609994#1 572511730 447141148 572511731 447141147#0 24583334#0 24583334#1 24583334#2 24583334#3 24583334#4 24583334#5 24583337#3 24583337#4 24583337#5 24583337#6 24583337#7 24583339#0 24583339#1 24583339#2 24583339#3 24583339#4 24583339#5 24583339#6 447141132#4 24577096#0"/>
    </vehicle>
    <vehicle id="8" type="passenger" depart="80.00" departLane="best" departPos="random" departSpeed="max">
        <route edges="-343654534#2 -343654534#1 -343654534#0 570616026#8 570616026#9 570616026#10 563975285 563974733#0 579781481#0 579781481#1 579781481#2 579781481#3 579781481#4 579781481#5 579781481#6 579781481#7 579781481#8 579781481#9 579781481#10 579781481#11 570616027 23133709#0 23133709#1 23133709#2 23133709#3 23133709#4 23133709#5 562340241 562340248#0 562340248#1 564223496#0 564223496#1 24583332#0 24583332#1 24583332#2 24583332#3 24583332#4 24583332#5 24583332#6 24583332#7 24583332#8 24583332#9"/>
    </vehicle>
    <vehicle id="9" type="passenger" depart="90.00" departLane="best" departPos="random" departSpeed="max">
        <route edges="579781481#10 579781481#11 570616027 23133709#0 23133709#1 23133709#2 23133709#3 23133709#4 23133709#5 562340241 562340248#0 562340248#1 564223496#0 564223496#1 578543605 564223494#0 564223494#1 564223494#2 564223494#3 31056641 1393463455#0 1393463455#1 1393463455#2 615556519#0 615556519#1 615556519#2 615556519#3 615556519#4 615556519#5 615556519#6 615556519#7 615556519#8 615556519#9 615556519#10 -24584373#11 -24584373#10 253307769#0 253307769#1 -1072914440#1 -1072914441"/>
    </vehicle>
    <vehicle id="10" type="passenger" depart="100.00" departLane="best" departPos="random" departSpeed="max">
        <route edges="578543603#0 578543603#1 578543603#2 578543603#3 578543603#4 578543603#5 578543603#6 578543603#7 523568284#0 996679780#0 996679780#1 996679780#2 563974735#0 563974735#1 563974735#2 563974735#3 563974735#4 563974735#5 563974735#6 563974735#7 563974735#8 563974735#9 563974735#10 563679836#0 563679836#1 563679836#2 563679836#3 563679836#4 563679836#5 563679836#6 563679836#7 563679836#8 563679836#9 563679836#10 563679836#11 563679836#12 563679836#13 563679836#14 563679836#15 1242128092#0 1242128092#1 1242128093 370672194#0 370672194#1 370672194#2 370672194#3 370672194#4"/>
    </vehicle>
    <vehicle id="11" type="passenger" depart="110.00" departLane="best" departPos="random" departSpeed="max">
        <route edges="-80418095#5 -80418095#4 -80418095#3 -80418095#2 -80418095#1 -80418095#0 -38699587#0 265975963#3 -1306141818#1 -1306141818#0 -265975966#5 1312753969#0 1312753969#1 665921720 665921719 665921717 1312753970#0 1312753970#1 1312753970#2 1312753970#3 996679780#0 996679780#1 996679780#2 563974735#0 563974735#1 563974735#2 563974735#3 563974735#4 563974735#5 563974735#6 563974735#7 563974735#8 563974735#9 563974735#10 563679836#0 563679836#1 563679836#2 563679836#3 563679836#4 563679836#5 563679836#6 563679836#7 563679836#8 563679836#9 563679836#10 563679836#11 563679836#12 563679836#13 563679836#14 563679836#15 1242128092#0 998790353#2 998790353#3 998790353#4 -998790354#7 -998790354#6 -998790354#5 -998790354#4 -998790354#3 -998790354#2 -998790354#1 -998790354#0 998790357#0 -577982260#6 -24583590#3"/>
    </vehicle>
    <vehicle id="12" type="passenger" depart="120.00" departLane="best" departPos="random" departSpeed="max">
        <route edges="80926788#1 80926788#2 80926788#3 80926788#4 80926788#5 80926788#6 80926788#7 463699077#0 463699077#1 492439727#0 492439727#1 492439727#2 492439726#0 492439726#1 80926759#0 80926759#1 80926759#2 80926759#3 -319329101#11 -319329101#10 -319329101#9 -319329101#8 -38235349#3 -38235349#2 -38235349#1 -38235349#0 -83675250#2"/>
    </vehicle>
    <vehicle id="13" type="passenger" depart="130.00" departLane="best" departPos="random" departSpeed="max">
        <route edges="-1292286060#0 -1060463405#1 1060463406 -686685084#0 1292286059 111695525#3 44277690#0 44277692#0 44277692#1 44277692#2 447141149#1 447141149#2 1219699878#0 1219699878#1 1219699878#2 1219699880 24583330#0 24583330#1 24583330#2 24583330#3 24583330#4 24583330#5 24583330#6 24583330#7 24583330#8 615556515#0 615556515#1 615556515#2 564223494#0 564223494#1 564223494#2 564223494#3 554665389#0 554665389#1 554665389#2 578543604 578543606 80414533#0 80414533#1 -154090267#3 -154090267#2"/>
    </vehicle>
    <vehicle id="14" type="passenger" depart="140.00" departLane="best" departPos="random" departSpeed="max">
        <route edges="656933877#5 656933877#6 656933877#7 656933877#8 1306148228 1306148229#0 1306148229#1 1306148229#2 1306148229#3 1306148229#4 1306148229#5 1306148229#6 1306148229#7 1306148229#8 1306148229#9 656933874 446922583#1 722082942 447141131#0 447141131#1 447141131#2 1076627689#0 1076627689#1 1076627690 562439576 996679781#0 996679781#1 996679781#2 996679781#3 80499778#0 80499778#1 80499778#2 80499778#3 80499778#4 80499778#5 80499778#6 562340247#0 562340247#1 562340247#2 562340247#3 562340247#4 562340247#5 562340245 23133709#0 23133709#1 23133709#2 23133709#3 23133709#4 23133709#5 562340241 562340248#0 562340248#1 564223496#0 564223496#1 24583332#0 24583332#1 24583332#2 24583332#3 24583332#4 24583332#5 24583332#6 24583332#7 24583332#8 24583332#9 24583332#10 24583489#0 24583489#1 24583489#2 24583489#3 24583489#4 24583489#5 24583489#6 24583489#7 24583489#8 24583489#9 24583489#10 24583489#11 24583489#12 24583489#13"/>
    </vehicle>
    <vehicle id="15" type="passenger" depart="150.00" departLane="best" departPos="random" departSpeed="max">
        <route edges="578543603#4 578543603#5 578543603#6 578543603#7 523568284#0 996679780#0 996679781#3 80499778#0 80499778#1 80499778#2 80499778#3 80499778#4 80499778#5 80499778#6 562340247#0 562340247#1 562340247#2 562340247#3 562340247#4 562340247#5 562340245 23133709#0 23133709#1 23133709#2 23133709#3 23133709#4 23133709#5 562340241 562340248#0 562340248#1 564223496#0 564223496#1 578543605 564223494#0 564223494#1 564223494#2 564223494#3 554665389#0 554665389#1 554665389#2 125453679#0 125453679#1 125453679#2 125453679#3 125453679#4 125453679#5 125453679#6 125453679#7 31058508#0 31058508#1 31058508#2 31058508#3 31058508#4 31058508#5 31056646#1 31056646#2 423618440#0"/>
    </vehicle>
    <vehicle id="16" type="passenger" depart="160.00" departLane="best" departPos="random" departSpeed="max">
        <route edges="23133600#1 23133600#2 23133600#3 1375201075 760480736 562340247#0 562340247#1 562340247#2 562340247#3 562340247#4 562340247#5 562340245 23133709#0 23133709#1 23133709#2 23133709#3 23133709#4 23133709#5 562340241 570616028#0 570616028#1 1278775921#0 1278775921#1 1278775920 24577478#0 24577478#1 24577478#2 996679779#0"/>
    </vehicle>
    <vehicle id="17" type="passenger" depart="170.00" departLane="best" departPos="random" departSpeed="max">
        <route edges="1072914437#0 1386106195#6 -424007961#1 44263458#6 44263458#7 590610031#1 590610031#2 31056642#0 1145143267#0 1145143267#1 700305760#0 700305760#1 700305760#2 700305760#3 700305760#4 700305760#5 700305760#6 700305760#7 700305760#8 44277692#1 44277692#2 447141149#1 447141149#2 665150702 554665390 24583321#0 24583321#1 24583321#2 997761553 997761552#0 997761552#1 994825990#0 994825990#1 994825990#2 447141148 572511731 447141147#0 24583334#0 24583334#1 24583334#2 24583334#3 24583334#4 24583334#5 24583337#3 24583337#4 24583337#5 24583337#6 24583337#7 24583339#0 24583339#1 24583339#2 24583339#3 24583339#4 24583339#5 24583339#6 447141132#4 596373329 562340239 998790359 998790356#0 998790356#1 998790356#2 998790356#3 998790356#4 998790356#5 998790356#6 998790356#7 998790356#8 998790355#0 24577118#0 24577118#1 24577118#2"/>
    </vehicle>
    <vehicle id="18" type="passenger" depart="180.00" departLane="best" departPos="random" departSpeed="max">
        <route edges="611866602#4 1153925787#4 291266019#0 291266019#1 1312753970#0 1312753970#1 1312753970#2 1312753970#3 996679780#0 996679780#1 996679780#2 563974735#0 563974735#1 24583592#0 24583592#1 24583592#2 24583592#3 24583592#4"/>
    </vehicle>
    <vehicle id="19" type="passenger" depart="190.00" departLane="best" departPos="random" departSpeed="max">
        <route edges="686771927#1 750482273#5 750482273#6 154356520#3 154356520#4 154356520#5 686920282 665921720 665921719 665921717 1312753970#0 1312753970#1 1312753970#2 1312753970#3 996679780#0 996679780#1 996679780#2 563974735#0 563974735#1 563974735#2 563974735#3 563974735#4 563974735#5 563974735#6 563974735#7 563974735#8 563974735#9 563974735#10 563974733#0 563974733#1 995793692#0 995793692#1 995793692#2 995793692#3 995793692#4 995793692#5 995793692#6 995793692#7 563975284#0 563975284#1 563974730#0 563974730#1 563974730#2 563974730#3 563974730#4 1122226240 996679779#1 996679779#2 996679779#3 996679779#4 996679779#5 996679779#6 996679779#7 447141147#0 447141147#1 447141147#2 24583324#0 24583324#1 590609994#0 590609994#1 572511730 447141148 24583327#0"/>
    </vehicle>
    <vehicle id="20" type="passenger" depart="200.00" departLane="best" departPos="random" departSpeed="max">
        <route edges="370672197#6 24563436#1 24563436#2 1306148229#0 1306148229#1 1306148229#2 1306148229#3 1306148229#4 1306148229#5 1306148229#6 1306148229#7 1306148229#8 1306148229#9 656933874 446922583#1 722082942 447141131#0 447141131#1 447141131#2 1076627689#0 1076627689#1 1076627690 562439576 563974732#0 563974732#1 563974732#2 563974735#0 563974735#1 563974735#2 563974735#3 563974735#4 563974735#5 563974735#6 563974735#7 563974735#8 563974735#9 563974735#10 563974733#0 563974733#1 995793692#0 995793692#1 995793692#2 995793692#3 995793692#4 995793692#5 995793692#6 995793692#7 563975284#0 563975284#1 563974730#0 563974730#1 563974730#2 563974730#3 563974730#4 563974730#5 579151950 1066619122#0 1066619122#1 24583487#0 24583487#1 24583487#2 24583487#3 24583487#4 24583487#5 24583487#6 24583487#7 24583487#8 24583487#9 24583487#10 24583487#11 -24583489#13 -24583489#12 -24583489#11 -24583489#10 -24583489#9 -24583489#8 -24583488#10 1122220361 -1122220362#0 -1122220358#0"/>
    </vehicle>
    <vehicle id="21" type="passenger" depart="210.00" departLane="best" departPos="random" departSpeed="max">
        <route edges="-370672197#4 -370672197#3 -370672197#2 -370672197#1 -370672197#0 712992080#1 712992080#2 712992080#3 712992080#4 995113419 570859666#0 570859666#1 570859666#2 446922583#0 446922583#1 722082942 447141131#0 447141131#1 447141131#2 446922589 24583333#0 24583333#1 74851424#0 74851424#1 -1277942000#8 -1277942000#7 -1277942000#6 -1277942000#5 -1277942000#4 -1277942000#3 -1277942000#2 -1277942000#1 -1277942000#0 1277941998#0 1277941998#1 74851429#4 662886376#0 662886376#1 -74851423#9 -74851423#8 -74851423#7 -74851423#6 -700293875#0"/>
    </vehicle>
    <vehicle id="22" type="passenger" depart="220.00" departLane="best" departPos="random" departSpeed="max">
        <route edges="-1216791011#2 1216791011#2 686847276#0 1253472523#0 1320950715 31058510#1 31058510#2 492439727#0 492439727#1 492439727#2 492439726#0 492439726#1 80926759#0 80926759#1 80926759#2 80926759#3 80926759#4 80926759#5 80926759#6 80926759#7 578543606 730111073#0 730111073#1 730111073#2 446922590#0 446922590#1 24577486#0 24577486#1 24577486#2 24577486#3 24577486#4 23133486#24 23133486#25 23133486#26 23133486#0 23133486#1 23133486#2 23133486#3 23133486#4 23133486#5 23133486#6 23133486#7 23133486#8 23133486#9 -391534135#6 -391534135#5"/>
    </vehicle>
    <vehicle id="23" type="passenger" depart="230.00" departLane="best" departPos="random" departSpeed="max">
        <route edges="-1386084973 -686792712 1145143267#1 700305760#0 700305760#1 700305760#2 700305760#3 700305760#4 700305760#5 700305760#6 700305760#7 700305760#8 44277692#1 44277692#2 447141149#1 447141149#2 665150702 554665390 570526052 24583320 24584375#0 24584375#1 24584375#2 24584375#3 24584375#4 24584375#5 24584375#6 24584375#7 -24584392#3 -24584392#2 -686696454#2"/>
    </vehicle>
    <vehicle id="24" type="passenger" depart="240.00" departLane="best" departPos="random" departSpeed="max">
        <route edges="24584375#10 447141153#0 447141153#1 24584389#0 24584389#1 24584389#2 24584389#3 782774053 722082950 570413589#0 570413589#1 570413589#2 447141139 447141140#0 447141140#1 447141140#2 24584377#0 24584377#1 24584377#2 24584377#3 24584377#4 24584377#5 24584377#6 24584377#7 24584377#8 24584377#9 447141152 570526053 447141150#0 111695525#0 111695525#1 111695525#2 111695525#3 44277690#0 44277690#1 44277690#2 44277690#3 44277690#4 44277690#5 44277690#6 1145143268#0 1145143268#1 31056642#2 31056642#3 590609996 779129470 80926788#0 80926788#1 80926788#2 80926788#3 80926788#4 80926788#5 80926788#6 80926788#7 463699077#0 463699077#1 1331524579#0 1331524579#1 1394089479 1394089480 1067100260#1"/>
    </vehicle>
    <vehicle id="25" type="passenger" depart="250.00" departLane="best" departPos="random" departSpeed="max">
        <route edges="1000448884#3 1000448884#4 164675827#6 164675827#7 80499778#6 562340247#0 562340247#1 562340247#2 562340247#3 562340247#4 562340247#5 562340245 23133709#0 23133709#1 23133709#2 23133709#3 23133709#4 23133709#5 562340241 562340248#0 562340248#1 564223496#0 564223496#1 578543605 564223494#0 564223494#1 564223494#2 564223494#3 554665389#0 554665389#1 554665389#2 578543604 578543606 80414533#0 80414533#1 80414533#2 80414533#3 80414533#4 80414533#5 267447262#0 1310427872#0 -360250362#3 -360250362#2 -360250362#1 -360250362#0"/>
    </vehicle>
    <vehicle id="26" type="passenger" depart="260.00" departLane="best" departPos="random" departSpeed="max">
        <route edges="-561672577#0 -561672574#0 997761541#4 997761541#5 997761541#6 997761541#7 997761541#8 997761541#9 24583333#1 24583333#2 24583333#3 24583333#4 24583333#5 24583333#6 446922584#0 446922584#1 446922586#0 446922586#1 995113415 570859666#0 570859666#1 570859666#2 446922583#0 446922583#1 722082942 447141131#0 447141131#1 447141131#2 1076627689#0 1076627689#1 1076627690 562439576 996679781#0 996679781#1 996679781#2 996679781#3 665921722 1312753971#0 1312753971#1 553596950 74851427 164782722 1306141818#0 1306141818#1 265975963#0 265975963#1 38699585#0 38699585#1 38699585#2 38699585#3 -80418094#2 -80418094#1 -80418094#0 80418094#0"/>
    </vehicle>
    <vehicle id="27" type="passenger" depart="270.00" departLane="best" departPos="random" departSpeed="max">
        <route edges="24584384#0 24584384#1 24584384#2 -24584384#2 -24584384#1 -24584384#0 24584377#8 24584377#9 447141152 570526053 447141150#0 447141150#1 447141149#0 447141149#1 447141149#2 665150702 554665390 24583321#0 24583321#1 24583321#2 997761553 997761552#0 997761552#1 -24583487#13 -24583487#12 -24583487#11 -24583487#10 -24583487#9 -24583487#8 -24583487#7 -24583487#6 -24583487#5 -24583487#4 -24583487#3 -24583487#2 -24583487#1 -24583487#0 1066619121#0 1066619121#1 997761547 -1066619123 74851428#0 74851428#1 -24583495#11 24583495#11"/>
    </vehicle>
    <vehicle id="28" type="passenger" depart="280.00" departLane="best" departPos="random" departSpeed="max">
        <route edges="-24583593#6 -24583593#5 -998790358#17 -998790358#16 -998790358#15 -998790358#14 -998790358#13 -998790358#12 -998790358#11 -998790358#10 -998790358#9 -998790358#8 -998790358#7 -998790358#6 -998790358#5 -998790358#4 -998790358#3 -998790358#2 -998790358#1 -998790358#0 998790353#0 998790353#1 998790353#2 579781482#3 116046167#0 116046167#1 116046167#2 116046167#3 116046167#4 116046167#5 116046167#6 116046167#7 116046167#8 116046167#9 579781481#0 579781481#1 579781481#2 579781481#3 579781481#4 579781481#5 579781481#6 579781481#7 579781481#8 579781481#9 579781481#10 579781481#11 570616027 23133709#0 23133709#1 23133709#2 23133709#3 23133709#4 23133709#5 562340241 562340248#0 562340248#1 564223496#0 564223496#1 578543605 564223494#0 564223494#1 564223494#2 564223494#3 554665389#0 554665389#1 554665389#2 125453679#0 125453679#1 125453679#2 125453679#3 125453679#4 125453679#5 125453679#6 125453679#7 31058508#0 31058508#1 31058508#2 31058508#3 31058508#4 31058508#5 31056646#1 31056646#2 31056646#3 423618426#0 423618426#1 423618426#2 -1072922044#2 423618433#2"/>
    </vehicle>
    <vehicle id="29" type="passenger" depart="290.00" departLane="best" departPos="random" departSpeed="max">
        <route edges="-24583584#6 116046167#2 116046167#3 116046167#4 116046167#5 116046167#6 116046167#7 116046167#8 116046167#9 579781481#0 579781481#1 579781481#2 579781481#3 579781481#4 579781481#5 579781481#6 579781481#7 579781481#8 579781481#9 579781481#10 579781481#11 570616027 23133709#0 23133709#1 23133709#2 23133709#3 23133709#4 23133709#5 562340241 562340248#0 562340248#1 564223496#0 564223496#1 578543605 564223494#0 564223494#1 564223494#2 564223494#3 31056641 1393463455#0 1393463455#1 1393463455#2 615556519#0 615556519#1 615556519#2 615556519#3 615556519#4 -44263461#8 -44263461#7 -44263457#8 -44263457#7 -44263457#6 103176793#0 1074774613"/>
    </vehicle>
    <vehicle id="30" type="passenger" depart="300.00" departLane="best" departPos="random" departSpeed="max">
        <route edges="998790355#0 -577982260#7 998790357#1 -998790356#8 -998790356#7 -998790356#6 -998790356#5 -998790356#4 -998790356#3 -998790356#2 -998790356#1 -998790356#0 998790360 23134734#0 23134734#1 23134734#2 23134734#3 710645770 447141133#0 447141133#1 722082944 447141132#0 447141132#1 370545701#0 370545701#1 370545701#2 24583337#9 24583337#10 24583337#11 24583337#0 24583337#1 24583335#0 24583335#1 24583335#2 24583335#3 24583335#4 24583335#5 447141147#2 24583324#0 24583324#1 590609994#0 590609994#1 717907807#0 717907807#1 717907807#2 717907807#3 717907807#4 717907807#5 717907807#6 24583320 570526051 447141152 48964552#0 48964552#1 24584381#0 24584381#1 24584381#2 24584378#1 24584378#2 24584378#3 24584378#4"/>
    </vehicle>
    <vehicle id="31" type="passenger" depart="310.00" departLane="best" departPos="random" departSpeed="max">
        <route edges="656933868 -656933868 24563436#2 1306148229#0 1306148229#1 1306148229#2 1306148229#3 1306148229#4 1306148229#5 1306148229#6 1306148229#7 1306148229#8 1306148229#9 656933874 446922583#1 722082942 447141131#0 447141131#1 447141131#2 1076627689#0 1076627689#1 1076627690 562439576 563974732#0 563974732#1 563974732#2 563974735#0 563974735#1 563974735#2 563974735#3 563974735#4 563974735#5 563974735#6 563974735#7 563974735#8 563974735#9 563974735#10 563974733#0 563974733#1 995793692#0 995793692#1 995793692#2 995793692#3 995793692#4 995793692#5 995793692#6 995793692#7 563975284#0 563975284#1 712992070 614072000 563679821#0 563679821#1 563679821#2"/>
    </vehicle>
    <vehicle id="32" type="passenger" depart="320.00" departLane="best" departPos="random" departSpeed="max">
        <route edges="-370765175#1 -370765175#0 -142865883#7 -142865883#6 -142865883#5 -142865883#4 -142865883#3 1277942000#1 1277942000#2 1277942000#3 1277942000#4 1277942000#5 1277942000#6 1277942000#7 1277942000#8 1277941999#0 1277941999#1 24583333#4 24583333#5 24583333#6 446922584#0 446922584#1 446922586#0 446922586#1 995113415 570859666#0 570859666#1 570859666#2 446922583#0 446922583#1 722082942 447141131#0 447141131#1 720546573#0 720546573#1 720546573#2 720546573#3 720546573#4 720546573#5 720546573#6 -1121142413#4 -1121142413#3 -1121142415"/>
    </vehicle>
    <vehicle id="33" type="passenger" depart="330.00" departLane="best" departPos="random" departSpeed="max">
        <route edges="-717454375#1 -717454375#0 -717454379#1 -717454379#0 -717454380#0 38699591#9 38699591#10 38699591#11 38699591#12 28103794#4 28103794#5 28103794#6 572511732#0 572511732#1 572511732#2 572511732#3 572511732#4 572511732#5 572511732#6 572511732#7 572511732#8 446922591 760480736 562340247#0 562340247#1 562340247#2 562340247#3 562340247#4 562340247#5 562340245 23133709#0 23133709#1 23133709#2 23133709#3 23133709#4 23133709#5 562340241 562340248#0 562340248#1 564223496#0 564223496#1 24583332#0 24583332#1 24583332#2 24583332#3 -612734121#2 612734125 612734122 -612734122"/>
    </vehicle>
    <vehicle id="34" type="passenger" depart="340.00" departLane="best" departPos="random" departSpeed="max">
        <route edges="-293153159#3 993538736#0 164698290#2 164698290#3 1076749550 -293153163#1 -293153163#0 686878276 38235041#7 686925958 80926759#6 80926759#7 578543606 730111073#0 730111073#1 730111073#2 446922590#0 446922590#1 446922590#2 446922590#3 446922590#4 446922590#5 446922590#6 596346055#0 596346055#1 596346055#2 1252826818#0 1252826818#1 1252826818#2 1252826818#3 1252826818#4 1252826818#5 38699586#0 38699586#1 265975963#1 38699585#0 -1080270727 -80418131#3 -80418131#2 80418131#2"/>
    </vehicle>
    <vehicle id="35" type="passenger" depart="350.00" departLane="best" departPos="random" departSpeed="max">
        <route edges="700293877#1 -1121139432#0 700293875#2 -1121139430#1 -1121139429#0 -700293881 -291266017#4 -291266017#3 -291266017#2 -291266017#1 -291266017#0 291266019#1 1312753970#0 1312753970#1 1312753970#2 1312753970#3 996679780#0 996679781#3 665921722 1312753971#0 1312753971#1 553596950 74851427 164782722 -265975966#5 1312753969#0 1312753969#1 -686920282 -154356520#5 -154356520#4 -154356520#3 -750482273#6 -750482273#5 -750482273#4 -750482273#3 -750482273#2 -750482273#1"/>
    </vehicle>
    <vehicle id="36" type="passenger" depart="360.00" departLane="best" departPos="random" departSpeed="max">
        <route edges="253307767#2 253307767#3 253307767#4 253307767#5 253307767#6 253307767#7 253307767#8 579781481#11 570616027 23133709#0 23133709#1 23133709#2 23133709#3 23133709#4 23133709#5 24577480#0 24577480#1 24577480#2 23133600#0 23133600#1 23133600#2 23133600#3 1375201075 760480737 578543603#1 578543603#2 -24582918#3 -24582918#2 -24582918#1 -24582918#0 -24582921#9 -1374634869#2 -423563749#3 -423563749#2 -423563749#1 -423563749#0 -24582919#4 1119548738#0 1119548738#1"/>
    </vehicle>
    <vehicle id="37" type="passenger" depart="370.00" departLane="best" departPos="random" departSpeed="max">
        <route edges="74851423#8 -700293879#0 -291266017#8 -291266017#7 -291266017#6 -291266017#5 -291266017#4 -291266017#3 -291266017#2 -291266017#1 -291266017#0 291266019#1 1312753970#0 1312753970#1 1312753970#2 1312753970#3 996679780#0 996679781#3 80499778#0 80499778#1 80499778#2 80499778#3 80499778#4 80499778#5 80499778#6 562340247#0 562340247#1 562340247#2 562340247#3 562340247#4 562340247#5 562340245 23133709#0 23133709#1 23133709#2 23133709#3 23133709#4 23133709#5 562340241 562340248#0 562340248#1 564223496#0 564223496#1 578543605 564223494#0 564223494#1 564223494#2 564223494#3 554665389#0 554665389#1 554665389#2 125453679#0 125453679#1 125453679#2 -24584373#0 -319329101#11 -319329101#10 -319329101#9 -319329101#8 -319329101#7 -319329101#6 -123406178#1 123406184#0"/>
    </vehicle>
    <vehicle id="38" type="passenger" depart="380.00" departLane="best" departPos="random" departSpeed="max">