<?xml version="1.0" encoding="UTF-8"?>

<!-- generated on 2025-08-03 03:19:57.635193 by randomTrips.py v1_23_1+0000-676720d13f6
<configuration>
    <net-file value="CP2/cp2.net.xml"/>
    <output-trip-file value="A-Star/CP2\cp2_trips.xml"/>
    <trip-attributes value="departLane='best' departSpeed='max' departPos='random'"/>
    <vehicle-class value="passenger"/>
    <validate value="True"/>
    <end value="1000.0"/>
    <period value="10.0"/>
</configuration>
-->

<routes xmlns:xsi="http://www.w3.org/2001/XMLSchema-instance" xsi:noNamespaceSchemaLocation="http://sumo.dlr.de/xsd/routes_file.xsd">
    <vType id="passenger" vClass="passenger"/>
    <trip id="0" depart="0.00" from="24584377#4" to="-1076782195#0" departLane='best' departSpeed='max' departPos='random' type="passenger"/>
    <trip id="1" depart="10.00" from="-577982260#5" to="-38235041#6" departLane='best' departSpeed='max' departPos='random' type="passenger"/>
    <trip id="2" depart="20.00" from="44263457#1" to="293153163#0" departLane='best' departSpeed='max' departPos='random' type="passenger"/>
    <trip id="3" depart="30.00" from="714986188#2" to="-1354558617" departLane='best' departSpeed='max' departPos='random' type="passenger"/>
    <trip id="4" depart="40.00" from="1122215529#0" to="-1121139432#1" departLane='best' departSpeed='max' departPos='random' type="passenger"/>
    <trip id="5" depart="50.00" from="-319329101#6" to="142865883#1" departLane='best' departSpeed='max' departPos='random' type="passenger"/>
    <trip id="6" depart="60.00" from="-1076782195#1" to="-293153159#0" departLane='best' departSpeed='max' departPos='random' type="passenger"/>
    <trip id="7" depart="70.00" from="24584385#2" to="24577096#0" departLane='best' departSpeed='max' departPos='random' type="passenger"/>
    <trip id="8" depart="80.00" from="-343654534#2" to="24583332#9" departLane='best' departSpeed='max' departPos='random' type="passenger"/>
    <trip id="9" depart="90.00" from="579781481#10" to="-1072914441" departLane='best' departSpeed='max' departPos='random' type="passenger"/>
    <trip id="10" depart="100.00" from="578543603#0" to="370672194#4" departLane='best' departSpeed='max' departPos='random' type="passenger"/>
    <trip id="11" depart="110.00" from="-80418095#5" to="-24583590#3" departLane='best' departSpeed='max' departPos='random' type="passenger"/>
    <trip id="12" depart="120.00" from="80926788#1" to="-83675250#2" departLane='best' departSpeed='max' departPos='random' type="passenger"/>
    <trip id="13" depart="130.00" from="-1292286060#0" to="-154090267#2" departLane='best' departSpeed='max' departPos='random' type="passenger"/>
    <trip id="14" depart="140.00" from="656933877#5" to="24583489#13" departLane='best' departSpeed='max' departPos='random' type="passenger"/>
    <trip id="15" depart="150.00" from="578543603#4" to="423618440#0" departLane='best' departSpeed='max' departPos='random' type="passenger"/>
    <trip id="16" depart="160.00" from="23133600#1" to="996679779#0" departLane='best' departSpeed='max' departPos='random' type="passenger"/>
    <trip id="17" depart="170.00" from="1072914437#0" to="24577118#2" departLane='best' departSpeed='max' departPos='random' type="passenger"/>
    <trip id="18" depart="180.00" from="611866602#4" to="24583592#4" departLane='best' departSpeed='max' departPos='random' type="passenger"/>
    <trip id="19" depart="190.00" from="686771927#1" to="24583327#0" departLane='best' departSpeed='max' departPos='random' type="passenger"/>
    <trip id="20" depart="200.00" from="370672197#6" to="-1122220358#0" departLane='best' departSpeed='max' departPos='random' type="passenger"/>
    <trip id="21" depart="210.00" from="-370672197#4" to="-700293875#0" departLane='best' departSpeed='max' departPos='random' type="passenger"/>
    <trip id="22" depart="220.00" from="-1216791011#2" to="-391534135#5" departLane='best' departSpeed='max' departPos='random' type="passenger"/>
    <trip id="23" depart="230.00" from="-1386084973" to="-686696454#2" departLane='best' departSpeed='max' departPos='random' type="passenger"/>
    <trip id="24" depart="240.00" from="24584375#10" to="1067100260#1" departLane='best' departSpeed='max' departPos='random' type="passenger"/>
    <trip id="25" depart="250.00" from="1000448884#3" to="-360250362#0" departLane='best' departSpeed='max' departPos='random' type="passenger"/>
    <trip id="26" depart="260.00" from="-561672577#0" to="80418094#0" departLane='best' departSpeed='max' departPos='random' type="passenger"/>
    <trip id="27" depart="270.00" from="24584384#0" to="24583495#11" departLane='best' departSpeed='max' departPos='random' type="passenger"/>
    <trip id="28" depart="280.00" from="-24583593#6" to="423618433#2" departLane='best' departSpeed='max' departPos='random' type="passenger"/>
    <trip id="29" depart="290.00" from="-24583584#6" to="1074774613" departLane='best' departSpeed='max' departPos='random' type="passenger"/>
    <trip id="30" depart="300.00" from="998790355#0" to="24584378#4" departLane='best' departSpeed='max' departPos='random' type="passenger"/>
    <trip id="31" depart="310.00" from="656933868" to="563679821#2" departLane='best' departSpeed='max' departPos='random' type="passenger"/>
    <trip id="32" depart="320.00" from="-370765175#1" to="-1121142415" departLane='best' departSpeed='max' departPos='random' type="passenger"/>
    <trip id="33" depart="330.00" from="-717454375#1" to="-612734122" departLane='best' departSpeed='max' departPos='random' type="passenger"/>
    <trip id="34" depart="340.00" from="-293153159#3" to="80418131#2" departLane='best' departSpeed='max' departPos='random' type="passenger"/>
    <trip id="35" depart="350.00" from="700293877#1" to="-750482273#1" departLane='best' departSpeed='max' departPos='random' type="passenger"/>
    <trip id="36" depart="360.00" from="253307767#2" to="1119548738#1" departLane='best' departSpeed='max' departPos='random' type="passenger"/>
    <trip id="37" depart="370.00" from="74851423#8" to="123406184#0" departLane='best' departSpeed='max' departPos='random' type="passenger"/>
    <trip id="38" depart="380.00" from="-553590478#2" to="-44263461#6" departLane='best' departSpeed='max' departPos='random' type="passenger"/>
    <trip id="39" depart="390.00" from="24577361#9" to="-577982260#2" departLane='best' departSpeed='max' departPos='random' type="passenger"/>
    <trip id="40" depart="400.00" from="24583330#2" to="717454379#4" departLane='best' departSpeed='max' departPos='random' type="passenger"/>
    <trip id="41" depart="410.00" from="998790358#4" to="154356516#0" departLane='best' departSpeed='max' departPos='random' type="passenger"/>
    <trip id="42" depart="420.00" from="-1277942000#5" to="-1122228221" departLane='best' departSpeed='max' departPos='random' type="passenger"/>
    <trip id="43" depart="430.00" from="-154356520#1" to="24584373#0" departLane='best' departSpeed='max' departPos='random' type="passenger"/>
    <trip id="44" depart="440.00" from="563974735#10" to="1122230049#1" departLane='best' departSpeed='max' departPos='random' type="passenger"/>
    <trip id="45" depart="450.00" from="-1144624113#3" to="1075734524#1" departLane='best' departSpeed='max' departPos='random' type="passenger"/>
    <trip id="46" depart="460.00" from="998790358#17" to="169081335#1" departLane='best' departSpeed='max' departPos='random' type="passenger"/>
    <trip id="47" depart="470.00" from="995793692#1" to="686792698#0" departLane='best' departSpeed='max' departPos='random' type="passenger"/>
    <trip id="48" depart="480.00" from="-1072922044#2" to="38699591#6" departLane='best' departSpeed='max' departPos='random' type="passenger"/>
    <trip id="49" depart="490.00" from="31056644#0" to="23133600#3" departLane='best' departSpeed='max' departPos='random' type="passenger"/>
    <trip id="50" depart="500.00" from="-561672577#0" to="24584380#1" departLane='best' departSpeed='max' departPos='random' type="passenger"/>
    <trip id="51" depart="510.00" from="-164675827#2" to="1153925787#0" departLane='best' departSpeed='max' departPos='random' type="passenger"/>
    <trip id="52" depart="520.00" from="1202691839#0" to="80926764#6" departLane='best' departSpeed='max' departPos='random' type="passenger"/>
    <trip id="53" depart="530.00" from="700293876#1" to="-577982260#4" departLane='best' departSpeed='max' departPos='random' type="passenger"/>
    <trip id="54" depart="540.00" from="1386086511#0" to="-24584392#5" departLane='best' departSpeed='max' departPos='random' type="passenger"/>
    <trip id="55" depart="550.00" from="74851423#2" to="686925959" departLane='best' departSpeed='max' departPos='random' type="passenger"/>
    <trip id="56" depart="560.00" from="-686847276#1" to="24584378#1" departLane='best' departSpeed='max' departPos='random' type="passenger"/>
    <trip id="57" depart="570.00" from="24583491#0" to="-24583587#0" departLane='best' departSpeed='max' departPos='random' type="passenger"/>
    <trip id="58" depart="580.00" from="561672577#0" to="23133709#3" departLane='best' departSpeed='max' departPos='random' type="passenger"/>
    <trip id="59" depart="590.00" from="563679821#1" to="169081336#0" departLane='best' departSpeed='max' departPos='random' type="passenger"/>
    <trip id="60" depart="600.00" from="-103176785#2" to="-80418094#0" departLane='best' departSpeed='max' departPos='random' type="passenger"/>
    <trip id="61" depart="610.00" from="-1074774615#0" to="775258786#3" departLane='best' departSpeed='max' departPos='random' type="passenger"/>
    <trip id="62" depart="620.00" from="700293880#2" to="612734124#2" departLane='best' departSpeed='max' departPos='random' type="passenger"/>
    <trip id="63" depart="630.00" from="-700305758#2" to="-1145143266#5" departLane='best' departSpeed='max' departPos='random' type="passenger"/>
    <trip id="64" depart="640.00" from="700293880#0" to="80429849#7" departLane='best' departSpeed='max' departPos='random' type="passenger"/>
    <trip id="65" depart="650.00" from="-1253487122" to="1306148229#3" departLane='best' departSpeed='max' departPos='random' type="passenger"/>
    <trip id="66" depart="660.00" from="-1153925787#4" to="562340243" departLane='best' departSpeed='max' departPos='random' type="passenger"/>
    <trip id="67" depart="670.00" from="562340248#0" to="-24582918#3" departLane='best' departSpeed='max' departPos='random' type="passenger"/>
    <trip id="68" depart="680.00" from="1277941999#1" to="24577106#3" departLane='best' departSpeed='max' departPos='random' type="passenger"/>
    <trip id="69" depart="690.00" from="-553590482#0" to="700293874#0" departLane='best' departSpeed='max' departPos='random' type="passenger"/>
    <trip id="70" depart="700.00" from="1122215531#1" to="-370672194#12" departLane='best' departSpeed='max' departPos='random' type="passenger"/>
    <trip id="71" depart="710.00" from="23133600#6" to="423618440#1" departLane='best' departSpeed='max' departPos='random' type="passenger"/>
    <trip id="72" depart="720.00" from="-267447262#9" to="-74851423#1" departLane='best' departSpeed='max' departPos='random' type="passenger"/>
    <trip id="73" depart="730.00" from="998790358#14" to="24584392#0" departLane='best' departSpeed='max' departPos='random' type="passenger"/>
    <trip id="74" depart="740.00" from="-164786644#2" to="-38235302#1" departLane='best' departSpeed='max' departPos='random' type="passenger"/>
    <trip id="75" depart="750.00" from="-80418094#1" to="24583332#6" departLane='best' departSpeed='max' departPos='random' type="passenger"/>
    <trip id="76" depart="760.00" from="-370765179#3" to="-371342951#2" departLane='best' departSpeed='max' departPos='random' type="passenger"/>
    <trip id="77" depart="770.00" from="-1184932071#2" to="24584374#1" departLane='best' departSpeed='max' departPos='random' type="passenger"/>
    <trip id="78" depart="780.00" from="-370765175#1" to="720546573#2" departLane='best' departSpeed='max' departPos='random' type="passenger"/>
    <trip id="79" depart="790.00" from="686685084#0" to="-123401419#0" departLane='best' departSpeed='max' departPos='random' type="passenger"/>
    <trip id="80" depart="800.00" from="-38235351#1" to="291266017#5" departLane='best' departSpeed='max' departPos='random' type="passenger"/>
    <trip id="81" depart="810.00" from="-311994764#1" to="-24582921#4" departLane='best' departSpeed='max' departPos='random' type="passenger"/>
    <trip id="82" depart="820.00" from="80414533#4" to="24582919#0" departLane='best' departSpeed='max' departPos='random' type="passenger"/>
    <trip id="83" depart="830.00" from="125453679#5" to="563791813" departLane='best' departSpeed='max' departPos='random' type="passenger"/>
    <trip id="84" depart="840.00" from="578543603#5" to="-289747210#0" departLane='best' departSpeed='max' departPos='random' type="passenger"/>
    <trip id="85" depart="850.00" from="-1310427872#0" to="1145143266#11" departLane='best' departSpeed='max' departPos='random' type="passenger"/>
    <trip id="86" depart="860.00" from="1122215531#2" to="1253487631#1" departLane='best' departSpeed='max' departPos='random' type="passenger"/>
    <trip id="87" depart="870.00" from="423618425#0" to="293153145#1" departLane='best' departSpeed='max' departPos='random' type="passenger"/>
    <trip id="88" depart="880.00" from="998790352#1" to="-154356520#4" departLane='best' departSpeed='max' departPos='random' type="passenger"/>
    <trip id="89" depart="890.00" from="686771927#1" to="-488544864#3" departLane='best' departSpeed='max' departPos='random' type="passenger"/>
    <trip id="90" depart="900.00" from="-24584392#5" to="1185928009" departLane='best' departSpeed='max' departPos='random' type="passenger"/>
    <trip id="91" depart="910.00" from="1122215529#0" to="-686771927#1" departLane='best' departSpeed='max' departPos='random' type="passenger"/>
    <trip id="92" depart="920.00" from="-423618433#2" to="758753899#3" departLane='best' departSpeed='max' departPos='random' type="passenger"/>
    <trip id="93" depart="930.00" from="116046167#2" to="686792698#2" departLane='best' departSpeed='max' departPos='random' type="passenger"/>
    <trip id="94" depart="940.00" from="24577096#7" to="-1122274850" departLane='best' departSpeed='max' departPos='random' type="passenger"/>
    <trip id="95" depart="950.00" from="998790359" to="615556515#0" departLane='best' departSpeed='max' departPos='random' type="passenger"/>
    <trip id="96" depart="960.00" from="995792406#5" to="763520419#1" departLane='best' departSpeed='max' departPos='random' type="passenger"/>
    <trip id="97" depart="970.00" from="656933877#9" to="-24584373#10" departLane='best' departSpeed='max' departPos='random' type="passenger"/>
    <trip id="98" depart="980.00" from="1306141818#1" to="-370672194#5" departLane='best' departSpeed='max' departPos='random' type="passenger"/>
    <trip id="99" depart="990.00" from="1076782194#2" to="-1145143266#7" departLane='best' departSpeed='max' departPos='random' type="passenger"/>
</routes>
