<?xml version="1.0" encoding="UTF-8"?>

<!-- generated on 2025-07-06 22:56:28.633823 by randomTrips.py v1_23_1+0000-676720d13f6
<configuration>
    <net-file value="SE.net.xml"/>
    <output-trip-file value="SE.rou.xml"/>
    <route-file value="SE.trips.xml"/>
    <trip-attributes value="departLane='best' departSpeed='max' departPos='random'"/>
    <vehicle-class value="passenger"/>
    <validate value="True"/>
    <end value="1000.0"/>
</configuration>
-->

<!-- generated on 2025-07-06 22:56:28 by Eclipse SUMO duarouter Version 1.23.1
<duarouterConfiguration xmlns:xsi="http://www.w3.org/2001/XMLSchema-instance" xsi:noNamespaceSchemaLocation="http://sumo.dlr.de/xsd/duarouterConfiguration.xsd">

    <input>
        <net-file value="SE.net.xml"/>
        <route-files value="SE.rou.xml"/>
    </input>

    <output>
        <output-file value="SE.trips.xml"/>
        <alternatives-output value="NUL"/>
    </output>

    <time>
        <begin value="0.0"/>
        <end value="1000.0"/>
    </time>

    <report>
        <no-warnings value="true"/>
        <ignore-errors value="true"/>
        <no-step-log value="true"/>
    </report>

</duarouterConfiguration>
-->

<routes xmlns:xsi="http://www.w3.org/2001/XMLSchema-instance" xsi:noNamespaceSchemaLocation="http://sumo.dlr.de/xsd/routes_file.xsd">
    <vType id="passenger" vClass="passenger"/>
    <vehicle id="0" type="passenger" depart="0.00" departLane="best" departPos="random" departSpeed="max">
        <route edges="292023764#4 1192927298 292023765#1 292023765#2 292023765#3 1203088401#5 1203088401#6 605698329#1 605698329#2 605698329#3 605698329#4 682964522#0 -292027059 -1239051719 -292024648#4 -292024648#3 -292024650#2 -1239066197 -1122281742"/>
    </vehicle>
    <vehicle id="1" type="passenger" depart="1.00" departLane="best" departPos="random" departSpeed="max">
        <route edges="-292025840#1 -292025840#0 111218029#10 111218029#11 111218029#13 31059207#5 31059207#6 605698328#0 605698328#1 605698328#2 605698328#3 605698328#4 605698328#5 605698328#6 605695081#1 605695081#2 605695081#3 605695081#5 1237997082#0 1246781004#0 1246781004#1 235103533#1 292024882#0 292024882#1 292024882#2 292024882#3 292024880#1 292024880#2 -292024880#2 -292024880#1"/>
    </vehicle>
    <vehicle id="2" type="passenger" depart="2.00" departLane="best" departPos="random" departSpeed="max">
        <route edges="292027015#1 292027015#2 -1184582476#0 1184582560 -292027010#0 -292023848#1 -292023848#0 1203088401#6 605695081#1 605695081#2 292025076#0 292025076#1 -1237997084 -235103533#3 292024872#5"/>
    </vehicle>
    <vehicle id="3" type="passenger" depart="3.00" departLane="best" departPos="random" departSpeed="max">
        <route edges="605695087#12 605695087#13 -46108375#5 605695084#2 605695084#3 605695084#4 605695084#5 605695084#6 605695084#7 605695084#8 1246774345 1203088401#0 1203088401#1 1203088401#2 1203088401#3 1203088401#4 1203088401#5 1203088401#6 605695081#1 292025078#0 292025078#1 292025078#2 292025078#3 292025078#4 1246781006#0 1246781006#1 -1246781006#1 -1246781006#0"/>
    </vehicle>
    <vehicle id="4" type="passenger" depart="4.00" departLane="best" departPos="random" departSpeed="max">
        <route edges="-776771535#1 776771535#1 776771535#2 46108379#1 1307402760 46108376 -1184126822#1"/>
    </vehicle>
    <vehicle id="5" type="passenger" depart="5.00" departLane="best" departPos="random" departSpeed="max">
        <route edges="-1120528080 -111218029#4 -111218029#2 -111218029#1 31059207#1 31059207#2 31059207#3 31059207#4 31059207#5 31059207#6 1136644107#1 1136644107#2 1136644107#3 36326993#0 292024663#0 292024663#1 -292024662#5 -292024662#4"/>
    </vehicle>
    <vehicle id="6" type="passenger" depart="6.00" departLane="best" departPos="random" departSpeed="max">
        <route edges="292023824 -44716380#11 -44716380#10 -44716380#8 -44716380#7 -44716380#5 -291878516#1 -291878516#0 -291878514#0 292027021#3 -1185237194#3 -1185237194#2 1306331919"/>
    </vehicle>
    <vehicle id="7" type="passenger" depart="7.00" departLane="best" departPos="random" departSpeed="max">
        <route edges="-292024704#0 -292024663#2 -292024663#1 292024661#1 292024661#2 46108373#14 1136644106#1 1136644106#2 605698328#0 605698328#1 605698328#2 605698328#3 605698328#4 605698328#5 605698328#6 605695081#1 605695081#2 605695081#3 997648749#2 997648749#3 189304970#0 189304970#1 189304970#2 189304970#3"/>
    </vehicle>
    <vehicle id="8" type="passenger" depart="8.00" departLane="best" departPos="random" departSpeed="max">
        <route edges="423755579#6 28616709#0 605695084#1 605695084#2 605695084#3 605695084#4 -164802172#2 -164802172#1 -164802172#0 -1080512081#1"/>
    </vehicle>
    <vehicle id="9" type="passenger" depart="9.00" departLane="best" departPos="random" departSpeed="max">
        <route edges="423755579#0-AddedOffRampEdge 423755579#1 605695084#1 605695084#2 605695084#3 605695084#4 605695084#5 605695084#6 605695084#7 605695084#8 1246774345 1203088401#0 1203088401#1 1203088401#2 1203088401#3 1203088401#4 1203088401#5 1203088401#6 605695081#1 292025078#0 292025078#1 292025078#2"/>
    </vehicle>
    <vehicle id="10" type="passenger" depart="10.00" departLane="best" departPos="random" departSpeed="max">
        <route edges="-44680205#10 684948940#0 -292025238#0 29534879#2 29534879#3 33050221#0 33050221#1 33050221#2 33050221#3 33050221#5 605695087#0 605695087#1 605695087#2 605695087#3 605695087#4 605695087#5 605695087#6 605695087#7 605695087#8 -164802172#2 -164802172#1 -164802172#0 -1080512081#1 1185258350 -1184583581 -291877903#1"/>
    </vehicle>
    <vehicle id="11" type="passenger" depart="11.00" departLane="best" departPos="random" departSpeed="max">
        <route edges="686651418#0 -423755471#2 686636881#1 43540177#0 43540177#1 682964524 605696840#0 605696840#1 605696840#2 605696840#3 605696840#4 605696840#5 605696840#6 1203038225#0 1203038225#1 1203038225#2 46108373#1 46108373#2 46108373#3 -46108373#3"/>
    </vehicle>
    <vehicle id="12" type="passenger" depart="12.00" departLane="best" departPos="random" departSpeed="max">
        <route edges="-1246778611 -292024903 292024876#1 292024876#2 292024876#3 -292024875#0 292024872#3 292024872#4 292024872#5 292024872#6 1211234345 33050221#3 33050221#5 605698329#1 605698329#2 605698329#3 605698329#4 1136644107#1 1136644107#2 1136644107#3 36326993#0 36326993#1 36326993#2 36326993#3 36326993#4 46108378#1 46108378#2 46108379#0 46108379#1 1307402760 46108376 1076248780 -1307402759"/>
    </vehicle>
    <vehicle id="13" type="passenger" depart="13.00" departLane="best" departPos="random" departSpeed="max">
        <route edges="46108373#9 46108373#10 46108373#11 46108373#12 46108373#13 46108373#14 1136644107#3 36326993#0 36326993#1 36326993#2 36326993#3 36326993#4 36326993#5 36326993#6 36326993#7 579272351#0 579272351#1 579272351#2 28616709#0 28616709#2 28616709#3 28616709#4"/>
    </vehicle>
    <vehicle id="14" type="passenger" depart="14.00" departLane="best" departPos="random" departSpeed="max">
        <route edges="423755579#1 605695084#1 605695084#2 605695084#3 605695084#4 605695084#5 44716380#1 44716380#2 44716380#3 44716380#4 44716380#5 1185227775 -292027014#1 1185227776 292027013#0 292027013#1 292027010#2 292027010#3 292027010#4"/>
    </vehicle>
    <vehicle id="15" type="passenger" depart="15.00" departLane="best" departPos="random" departSpeed="max">
        <route edges="1246774345 1203088401#0 1203088401#1 1203088401#2 1203088401#3 1203088401#4 1203088401#5 1203088401#6 605698329#1 605698329#2 605698329#3 605698329#4 1136644107#1 1136644107#2 1136644107#3 36326993#0 36326993#1 36326993#2 36326993#3 36326993#4 36326993#5 605696840#3 1239031522 686638462#0 773571761#0 773571761#1"/>
    </vehicle>
    <vehicle id="16" type="passenger" depart="16.00" departLane="best" departPos="random" departSpeed="max">
        <route edges="44680205#7 44680205#8 44680205#9 44680205#10 29534879#1 29534879#2 29534879#3 33050221#0 33050221#1 33050221#2 33050221#3 33050221#5 605698329#1 -994830064#3 -1080439108 1306335976 -292027345 -164802170#1 -164802170#0 -1185237194#3 -1185237194#2 -1185237194#1 -1185237194#0 291877904#2"/>
    </vehicle>
    <vehicle id="17" type="passenger" depart="17.00" departLane="best" departPos="random" departSpeed="max">
        <route edges="46108379#9 46108375#1 46108375#2 46108375#3 -605696842#1 -605696841#1 -605696841#0 164802174#1 164802174#2 164802174#3 164802174#4 164802174#5 164802174#6"/>
    </vehicle>
    <vehicle id="18" type="passenger" depart="18.00" departLane="best" departPos="random" departSpeed="max">
        <route edges="292025080 292025076#1 -292025077#1 -292025077#0 605698328#5 605698328#6 605695087#0 605695087#1 605695087#2 605695087#3 605695087#4 605695087#5 -44716380#12 -44716380#11 -1185231632"/>
    </vehicle>
    <vehicle id="19" type="passenger" depart="19.00" departLane="best" departPos="random" departSpeed="max">
        <route edges="-292024872#5 292024872#5 292024872#6 1211234345 33050221#3 33050221#5 605698329#1 -994830064#3 -1080439108 1306335976 -292027345 -164802170#1 -164802170#0 -1185237194#3 -1185237194#2 -1185237194#1 -1185237194#0 -291877904#0 -994832893#1 -994832893#0 -776771535#0 -164802157#0 292027391#1 292027391#2 292027392 -292027394#2 -292027394#1"/>
    </vehicle>
    <vehicle id="20" type="passenger" depart="20.00" departLane="best" departPos="random" departSpeed="max">
        <route edges="-1239030821#0 1239030821#0 -1137221549#0 686638459 605696840#2 605696840#3 605696840#4 605696840#5 605696840#6 1203038225#0 1203038225#1 1203038225#2 1203038225#3 1136644106#0 1136644106#1 1136644106#2 605698328#0 605698328#1 605698328#2 292025084#0 -292025078#3 -292025078#2"/>
    </vehicle>
    <vehicle id="21" type="passenger" depart="21.00" departLane="best" departPos="random" departSpeed="max">
        <route edges="-1306324405 -292027391#1 164802157#0 776771535#0 994832893#0 994832893#1 291877904#0 1185237194#0 1185237194#1 1185237194#2 1185237194#3 164802170#0 164802170#1 164802159#1 164802159#2 292027022#0 292027022#1 -292027344"/>
    </vehicle>
    <vehicle id="22" type="passenger" depart="22.00" departLane="best" departPos="random" departSpeed="max">
        <route edges="292023622 -1086239052#2 -1086239052#1 -1086239052#0 369853361#1 -44716380#1 605695087#8 605695087#9 605695087#10 605695087#11 605695087#12 605695087#13 605695087#14 423755579#3 423755579#4 423755579#5 423755579#6 423755579#8 567831194#0 1363977042#1 -682844000#0"/>
    </vehicle>
    <vehicle id="23" type="passenger" depart="23.00" departLane="best" departPos="random" departSpeed="max">
        <route edges="-46108379#10 -46108379#9 -46108379#8 -46108379#7 -36326989#2 -36326989#1 -36326989#0 605696840#3 605696840#4 605696840#5 605696840#6 1203038225#0 1203038225#1 1203038225#2 1203038225#3 1136644106#0 1136644106#1 1136644106#2 605698328#0 605698328#1 605698328#2 605698328#3 605698328#4 605698328#5 605698328#6 605695081#1 605695081#2 605695081#3 605695081#5 -1211234345 -292024872#6 -292024872#5 -292024872#4 -292024872#3 -292024872#2 -292024872#1 -292024872#0"/>
    </vehicle>
    <vehicle id="24" type="passenger" depart="24.00" departLane="best" departPos="random" departSpeed="max">
        <route edges="-292025667#1 -292025667#0 -292025663#0 1203038225#0 1203038225#1 1203038225#2 1203038225#3 1136644106#0 1136644106#1 1136644106#2 605698328#0 605698328#1 605698328#2 605698328#3 605698328#4 605698328#5 605698328#6 605695081#1 605695081#2 605695081#3 997648749#2 997648749#3 997648749#4 44680205#1 44680205#2 44680205#3 44680205#4 44680205#5 44680205#7 44680205#8 44680205#9 684948940#0"/>
    </vehicle>
    <vehicle id="25" type="passenger" depart="25.00" departLane="best" departPos="random" departSpeed="max">
        <route edges="292023821#0 -292023821#0 291868047#0 291868047#1"/>
    </vehicle>
    <vehicle id="26" type="passenger" depart="26.00" departLane="best" departPos="random" departSpeed="max">
        <route edges="-291877904#3 -291877904#2 1185237194#0 1185237194#1 1185237194#2 1185237194#3 164802170#0 164802170#1 -164802176#1 -164802176#0 292027013#0 292027013#1 292027010#2 292027010#3"/>
    </vehicle>
    <vehicle id="27" type="passenger" depart="27.00" departLane="best" departPos="random" departSpeed="max">
        <route edges="-291877163#0 -1203087601 1246774348#1 44716380#10 44716380#11 44716380#12 605695087#6 605695087#7 605695087#8 605695087#9 605695087#10 605695087#11 605695087#12 605695087#13 605695087#14 423755579#3 423755579#4 423755579#5 423755579#6 423755579#8 567831194#0 567831194#1 567831194#2 567831194#3 567831194#4 43540177#0 43540177#1 682964524 605696840#0 605696840#1 605696840#2 605696840#3 1239031522 -686638462#6 -686638462#5"/>
    </vehicle>
    <vehicle id="28" type="passenger" depart="28.00" departLane="best" departPos="random" departSpeed="max">
        <route edges="924403692 -1184127904 -292024662#3 -292024662#2 -292024662#1 -292024662#0 46108373#13 46108373#14 1136644106#1 1136644106#2 605698328#0 605698328#1 605698328#2 605698328#3 605698328#4 605698328#5 605698328#6 605695087#0 605695087#1 605695087#2 605695087#3 1246774352 292023764#0 292023764#1 292023820"/>
    </vehicle>
    <vehicle id="29" type="passenger" depart="29.00" departLane="best" departPos="random" departSpeed="max">
        <route edges="1307402760 -1307402760 -46108379#1 -46108379#0 -46108378#2 -46108378#1 605696840#6 1203038225#0 1203038225#1 1203038225#2 1203038225#3 1136644106#0 1136644106#1 1136644106#2 605698328#0 605698328#1 605698328#2 605698328#3 605698328#4 605698328#5 605698328#6 605695081#1 605695081#2 605695081#3 605695081#5 -1211234345 -292024872#6 -292024872#5 -292024872#4 -292024872#3 -292024872#2 292024873#0 292024876#0 292024876#1 292024876#2 292024876#3"/>
    </vehicle>
    <vehicle id="30" type="passenger" depart="30.00" departLane="best" departPos="random" departSpeed="max">
        <route edges="46108373#3 -46108373#3 -46108373#2 -46108373#1 1203038225#3 1136644106#0 1136644106#1 1136644106#2 605698328#0 605698328#1 605698328#2 605698328#3 605698328#4 605698328#5 605698328#6 605695081#1 605695081#2 605695081#3 605695081#5 1237997082#0 1237997082#1 1237997082#2 1237997082#3 29534879#5 29534879#6 29534879#7 29534879#8 29534879#9 565464672 80515454 565464671 80515444#2 683766478#0 691886300 -31756505#6 -31756505#5 -31756505#4 -31756505#3 -31756505#2 -31756505#1 -31756505#0 31756505#0 31756505#1 31756505#2 31756505#3 31756505#4 31756505#5"/>
    </vehicle>
    <vehicle id="31" type="passenger" depart="31.00" departLane="best" departPos="random" departSpeed="max">
        <route edges="-292024872#6 292024872#6 1211234345 33050221#3 33050221#5 605698329#1 -994830064#3 -994830064#1 -1080439106#1 -1080439106#0 -292027012#1 -292027012#0 292027010#3 -1184582476#1 -1184582476#0"/>
    </vehicle>
    <vehicle id="32" type="passenger" depart="32.00" departLane="best" departPos="random" departSpeed="max">
        <route edges="-317580221#0 -292023421 -164802167#1 -164802167#0 -1306326479#1 -1306326479#0 291877904#0 1185237194#0 1185237194#1 1185237194#2 1185237194#3 164802170#0 164802170#1 292027345 292027022#3 292027015#0 292027017 -292027017"/>
    </vehicle>
    <vehicle id="33" type="passenger" depart="33.00" departLane="best" departPos="random" departSpeed="max">
        <route edges="-292024662#1 -292024662#0 -46108373#12 -686633494#2 -686633494#1 -686633494#0 -1185227772 1185227772 686633494#0"/>
    </vehicle>
    <vehicle id="34" type="passenger" depart="34.00" departLane="best" departPos="random" departSpeed="max">
        <route edges="579272354#0 579272354#1 682964487#0 682964487#1 682964487#2 579272351#0 579272351#1 579272351#2 28616709#0 605695084#1 605695084#2 605695084#3 605695084#4 605695084#5 605695084#6 605695084#7 605695084#8 1246774345 1203088401#0 1203088401#1 1203088401#2 44680204#1 -44680203#12 -44680203#11 -44680203#9 -44680203#8 -44680203#7 -44680203#6 -44680203#5"/>
    </vehicle>
    <vehicle id="35" type="passenger" depart="35.00" departLane="best" departPos="random" departSpeed="max">
        <route edges="292024329#1 -292024330 1185237195 292027020 1185237196 -46108373#5 -46108373#4 -46108373#3 -46108373#2 -46108373#1 36326993#2 36326993#3 36326993#4 36326993#5 605696840#3 605696840#4 773571759 -773571759"/>
    </vehicle>
    <vehicle id="36" type="passenger" depart="36.00" departLane="best" departPos="random" departSpeed="max">
        <route edges="605698329#2 605698329#3 605698329#4 1136644107#1 1136644107#2 -46108373#14 -46108373#13 292024662#0 292024662#1 292024662#2 292024662#3 1184127904"/>
    </vehicle>
    <vehicle id="37" type="passenger" depart="37.00" departLane="best" departPos="random" departSpeed="max">
        <route edges="-292025663#3 -292025663#2"/>
    </vehicle>
    <vehicle id="38" type="passenger" depart="38.00" departLane="best" departPos="random" departSpeed="max">
        <route edges="1365044689 -423755552#0 567831194#3 567831194#4 43540177#0 43540177#1 682964524 605696840#0 605696840#1 605696840#2 605696840#3 605696840#4 605696840#5 605696840#6 1203038225#0 1203038225#1 1203038225#2 1203038225#3 1136644106#0 -46108373#14 -46108373#13 -46108373#12 -46108373#11 -686616066 292027022#1 292027022#2 292027022#3 292027015#0 292027015#1 292027015#2 -1184582476#0 -292027013#0"/>
    </vehicle>
    <vehicle id="39" type="passenger" depart="39.00" departLane="best" departPos="random" departSpeed="max">
        <route edges="164802174#5 164802174#6 292023420 1080512081#1 164802172#0 164802172#1 164802172#2 605695087#9"/>
    </vehicle>
    <vehicle id="40" type="passenger" depart="40.00" departLane="best" departPos="random" departSpeed="max">
        <route edges="-686638462#6 -686638462#5 1239031489 686638459 605696840#2 605696840#3 605696840#4 605696840#5 605696840#6 1203038225#0 1203038225#1 1203038225#2 1203038225#3 1136644106#0 1136644106#1 1136644106#2 605698328#0 605698328#1 605698328#2 605698328#3 605698328#4 605698328#5 605698328#6 605695081#1 605695081#2 605695081#3 605695081#5 -1211234345 -292024872#6 -292024872#5 -292024872#4 -292024872#3 292024875#0 -292024876#3 -292024876#2 -292024876#1"/>
    </vehicle>
    <vehicle id="41" type="passenger" depart="41.00" departLane="best" departPos="random" departSpeed="max">
        <route edges="997648749#3 -997648749#3 -997648749#2 605695081#5 1237997082#0 1237997082#1 1237997082#2 1237997082#3 29534879#5 29534879#6 29534879#7 29534879#8 -1214792661#1 -1214792661#0 -1237199970 -1237199969 1237199969"/>
    </vehicle>
    <vehicle id="42" type="passenger" depart="42.00" departLane="best" departPos="random" departSpeed="max">
        <route edges="-1246774351 292023781#1 292023781#2 292023781#3 292023781#4 1185231635 1185231636 -1185231636 -1185231635"/>
    </vehicle>
    <vehicle id="43" type="passenger" depart="43.00" departLane="best" departPos="random" departSpeed="max">
        <route edges="-1306335976 -292023915#1 -292023915#0 -1080317752 -292027017 -292027015#0 -292027022#3 -292027345 -164802170#1 -291878514#1 -291878514#0 292023488#0"/>
    </vehicle>
    <vehicle id="44" type="passenger" depart="44.00" departLane="best" departPos="random" departSpeed="max">
        <route edges="36326993#1 46108373#1 46108373#2 46108373#3 46108373#4 46108373#5 46108373#6 46108373#7 46108373#8 46108373#9 -164802159#3 -164802159#2 -164802159#1 -164802176#1 -164802176#0 292027013#0 292027013#1 292027010#2 292027012#0 292027012#1 1080439109"/>
    </vehicle>
    <vehicle id="45" type="passenger" depart="45.00" departLane="best" departPos="random" departSpeed="max">
        <route edges="-1185258350 -1185258351 -164802167#4 -164802167#2 292023421 686641857 -1136372533 -292027394#1 -292027394#0 292027393#2 292027391#5 292027391#6 686646774#0 686646774#1 -686646774#1"/>
    </vehicle>
    <vehicle id="46" type="passenger" depart="46.00" departLane="best" departPos="random" departSpeed="max">
        <route edges="997643075 44680203#2 44680203#3 44680203#4 44680203#5 44680203#6 44680203#7 44680203#8 44680203#9 44680203#11 44680203#12 -44680204#1 605695087#1 605695087#2 605695087#3 1246774352 292023764#0 -292023821#0 291868047#0 291877474#0 291877474#1 1246774350"/>
    </vehicle>
    <vehicle id="47" type="passenger" depart="47.00" departLane="best" departPos="random" departSpeed="max">
        <route edges="773057400#0 -773057400#0 -46108380#1 -46108380#0 46108379#0 46108379#1 46108379#2 46108379#3 46108379#4 46108379#5 46108379#7 46108379#8"/>
    </vehicle>
    <vehicle id="48" type="passenger" depart="48.00" departLane="best" departPos="random" departSpeed="max">
        <route edges="-111218026#0 111218029#13 31059207#5 31059207#6 1136644107#1 1136644107#2 1136644107#3 36326993#0 36326993#1 36326993#2 -686594498#0 292025685#0 292025685#1"/>
    </vehicle>
    <vehicle id="49" type="passenger" depart="49.00" departLane="best" departPos="random" departSpeed="max">
        <route edges="292024872#5 292025080 292025076#1 292025076#2 1246781008 -292025084#1 292025078#4 1246781006#0 1246781007"/>
    </vehicle>
    <vehicle id="50" type="passenger" depart="50.00" departLane="best" departPos="random" departSpeed="max">
        <route edges="-292025667#1 -292025667#0 -292025663#0 1203038225#0 1203038225#1 1203038225#2 1203038225#3 1136644106#0 1136644106#1 1136644106#2 605698328#0 605698328#1 605698328#2 605698328#3 605698328#4 605698328#5 605698328#6 605695087#0 605695087#1 605695087#2 605695087#3 1246774352 292023764#0 -292023821#0 292023821#0"/>
    </vehicle>
    <vehicle id="51" type="passenger" depart="51.00" departLane="best" departPos="random" departSpeed="max">
        <route edges="-1307402760 -46108379#1 -46108379#0 -46108378#2 -46108378#1 605696840#6 1203038225#0 1203038225#1 1203038225#2 1203038225#3 1136644106#0 1136644106#1 1136644106#2 682964522#0 682964522#1 682964522#2 682964522#3 111218029#1 111218029#2 111218029#4"/>
    </vehicle>
    <vehicle id="52" type="passenger" depart="52.00" departLane="best" departPos="random" departSpeed="max">
        <route edges="111218029#13 31059207#5 31059207#6 1136644107#1 1136644107#2 1136644107#3 36326993#0 36326993#1 36326993#2 36326993#3 36326993#4 36326993#5 36326993#6 36326993#7 579272351#0 579272351#1 -46108379#10 46108375#1 686661946#0 686661946#1 292027391#6 686646774#0"/>
    </vehicle>
    <vehicle id="53" type="passenger" depart="53.00" departLane="best" departPos="random" departSpeed="max">
        <route edges="579272354#0 579272354#1 682964487#0 682964487#1 605696840#0 605696840#1 605696840#2 605696840#3 605696840#4 605696840#5 605696840#6 1203038225#0 1203038225#1 1203038225#2 1203038225#3 1136644106#0 -46108373#14 -46108373#13 -46108373#12 -46108373#11 -686616066 292027022#1 292027022#2 292027022#3 292027015#0 292027015#1 292027015#2 1184582476#1 -292027010#3 -292027010#2 -292027013#1"/>
    </vehicle>
    <vehicle id="54" type="passenger" depart="54.00" departLane="best" departPos="random" departSpeed="max">
        <route edges="1185258350 -1185258350 1080512081#1 164802172#0 164802172#1 164802172#2 605695084#5 605695084#6 605695084#7 605695084#8 1246774345 1246774346 292023781#0 292023781#1 292023781#2 -292023820"/>
    </vehicle>
    <vehicle id="55" type="passenger" depart="55.00" departLane="best" departPos="random" departSpeed="max">
        <route edges="605698328#5 605698328#6 605695087#0 605695087#1 605695087#2 605695087#3 605695087#4 605695087#5 605695087#6 605695087#7 605695087#8 605695087#9 605695087#10 605695087#11 605695087#12 605695087#13 605695087#14 423755579#3 423755579#4 423755579#5 423755579#6 423755579#8 567831194#0"/>
    </vehicle>
    <vehicle id="56" type="passenger" depart="56.00" departLane="best" departPos="random" departSpeed="max">
        <route edges="-292027344 -164802159#1 -164802176#1 -164802176#0 -1185227776 292027014#1 -1185227775 44716380#7 44716380#8 291877045 1203088403 292023765#0 292023765#1 292023765#2 -1185231636 -1185231635 292023781#5"/>
    </vehicle>
    <vehicle id="57" type="passenger" depart="57.00" departLane="best" departPos="random" departSpeed="max">
        <route edges="235103533#3 1237997084 -292025077#1 -292025077#0 605698328#5 605698328#6 605695087#0 605695087#1 605695087#2 605695087#3 1246774352 292023764#0 -292023821#0 721571454#0 -291877474#2"/>
    </vehicle>
    <vehicle id="58" type="passenger" depart="58.00" departLane="best" departPos="random" departSpeed="max">
        <route edges="29534879#1 29534879#2 29534879#3 33050221#0 33050221#1 33050221#2 33050221#3 33050221#5 605698329#1 -994830064#3 -1080439108 1306335976 -292027345 -164802170#1 -164802170#0 -1185237194#3 -1185237194#2 -1185237194#1 -1185237194#0 -291877904#0 -994832893#1 -994832893#0 -776771535#0 -164802157#0 -1185237199 -292027390#2 1306323162"/>
    </vehicle>
    <vehicle id="59" type="passenger" depart="59.00" departLane="best" departPos="random" departSpeed="max">
        <route edges="-1076248781#1 -1076248782 -46108377#1 -1076248781#2 -36326990 -36326989#0 605696840#3 605696840#4 605696840#5 605696840#6 1203038225#0 1203038225#1 1203038225#2 1203038225#3 1136644106#0 1136644106#1 1136644106#2 605698328#0 605698328#1 605698328#2 605698328#3 605698328#4 605698328#5 605698328#6 605695081#1 605695081#2 605695081#3 997648749#2 997648749#3 997648749#4 44680205#1 44680205#2 44680205#3 44680205#4 44680205#5 44680205#7 44680205#8 44680205#9 44680205#10 -44680205#10 -44680205#9"/>
    </vehicle>
    <vehicle id="60" type="passenger" depart="60.00" departLane="best" departPos="random" departSpeed="max">
        <route edges="-111218035#0 111218029#11 111218029#13 682964522#3"/>
    </vehicle>
    <vehicle id="61" type="passenger" depart="61.00" departLane="best" departPos="random" departSpeed="max">
        <route edges="-292027393#2 -292027393#1 -292027393#0 605696845#0 605696842#0 605696842#1 46108375#4 605695084#2 605695084#3 605695084#4 605695084#5 605695084#6 605695084#7 605695084#8 1246774345 1203088401#0 1203088401#1 1203088401#2 1203088401#3 1203088401#4 1203088401#5 1203088401#6 605695081#1 605695081#2 605695081#3 605695081#5 -1211234345 -292024872#6 -292024872#5 -292024872#4 -292024872#3 -292024872#2 -292024872#1 292024874#0 -1190347818"/>
    </vehicle>
    <vehicle id="62" type="passenger" depart="62.00" departLane="best" departPos="random" departSpeed="max">
        <route edges="579272357#1 164801128#0 164801128#1 682964487#0 682964487#1 605696840#0 605696840#1 605696840#2 605696840#3 1239031522 686638462#0 686638462#1 686638461#0"/>
    </vehicle>
    <vehicle id="63" type="passenger" depart="63.00" departLane="best" departPos="random" departSpeed="max">
        <route edges="-1239066197 -1122281742 111218035#2 -292025685#1 -292025685#0 686594498#0 1203038225#2 46108373#1 46108373#2 46108373#3 -46108380#3 -46108380#2 -46108380#1 -772391069 1306326479#0 1306326479#1 164802167#0 164802167#1 164802167#2 164802167#4 1185258351 1185258350"/>
    </vehicle>
    <vehicle id="64" type="passenger" depart="64.00" departLane="best" departPos="random" departSpeed="max">
        <route edges="-1211234342#0 -1246779611 -292024873#2 -292024873#1 -292024873#0 292024872#2 292024872#3 292024872#4 292024872#5 292024872#6 1211234345 33050221#3 33050221#5 605695087#0 605695087#1 605695087#2 605695087#3 605695087#4 605695087#5 605695087#6 605695087#7 605695087#8 -164802172#2 -164802172#1 -164802172#0 -1080512081#1 -1185258351 -164802167#4 -164802167#2 292023421 686641857 -1136372533 292027394#2"/>
    </vehicle>
    <vehicle id="65" type="passenger" depart="65.00" departLane="best" departPos="random" departSpeed="max">
        <route edges="1184582302 -292027012#0 -292027010#2 -292027013#1 -292027013#0 164802176#0 164802176#1 164802159#1 164802159#2 164802159#3 -46108373#9 -46108373#8 -46108373#7 -46108373#6 -46108373#5 -46108373#4 -46108380#3 -46108380#2 -46108380#1 -46108380#0 46108379#0 46108379#1 1307402760 46108376 1076248780 -1307402759 1307402759"/>
    </vehicle>
    <vehicle id="66" type="passenger" depart="66.00" departLane="best" departPos="random" departSpeed="max">
        <route edges="-292025665 -292025667#0 -292025663#0 36326993#4 36326993#5 36326993#6 36326993#7 682964523 -686636881#1 -423755471#1 -423755501 -423755552#2 -423755552#0 567831194#3"/>
    </vehicle>
    <vehicle id="67" type="passenger" depart="67.00" departLane="best" departPos="random" departSpeed="max">
        <route edges="-776773435 686633494#2 46108373#12 46108373#13 46108373#14 1136644106#1 1136644106#2 605698328#0 605698328#1 605698328#2 605698328#3 605698328#4 605698328#5 605698328#6 605695081#1 605695081#2 605695081#3 605695081#5 -1211234345 -292024872#6 -292024872#5 -292024872#4 -292024872#3"/>
    </vehicle>
    <vehicle id="68" type="passenger" depart="68.00" departLane="best" departPos="random" departSpeed="max">
        <route edges="1246774349 1246774348#1 -44716380#8 -44716380#7 1185227775 -292027014#1 1185227776 292027013#0 292027013#1 292027010#2 292027010#3 292027010#4"/>
    </vehicle>
    <vehicle id="69" type="passenger" depart="69.00" departLane="best" departPos="random" departSpeed="max">
        <route edges="-292024648#0 -1239066199 292024649#0 -1239066198 292024650#1 292024650#2 292024648#3 -1239058047 -292025708 1136644106#0 1136644106#1 1136644106#2 605698328#0 605698328#1 605698328#2 605698328#3 605698328#4 605698328#5 605698328#6 605695087#0 44680204#1 -44680203#12"/>
    </vehicle>
    <vehicle id="70" type="passenger" depart="70.00" departLane="best" departPos="random" departSpeed="max">
        <route edges="994832896 -164802167#6 -164802167#5 -164802167#4 -164802167#2 -164802167#1 -164802167#0 -1306326479#1 -1306326479#0 772391069 46108380#1 46108380#2 46108380#3 -46108373#3 -46108373#2 -46108373#1 1203038225#3 292025708 1239058047 -292024648#3 -292024650#2 -292024650#1 1239066198 -292024649#0 1239066199 292024648#0"/>
    </vehicle>
    <vehicle id="71" type="passenger" depart="71.00" departLane="best" departPos="random" departSpeed="max">