<routes><vType id="car" accel="2.6" decel="4.5" sigma="0.5" length="5" minGap="2.5" maxSpeed="70" guiShape="passenger" /><vehicle id="veh0" type="car" depart="0.0"><route edges="-295636695#0 -423608337#2 -423608337#1 -423608337#0 80940711#5 -1240077931 320348724#1 320348699 80940711#7 -320348695 320348724#4 -320348725#2 -320348725#1 1118580406 320348711#0 -320348726#5 -320348726#4 -320348696 -320348726#2 -320348700 -320348726#1 44923693#1 44923693#2 44923693#3 44923693#4 44923693#5 44141435#7 80940694#0 80940694#2 80940694#3 80940694#4 80940694#5 80940694#6 80940694#7 80940694#8 80940694#9 80940694#10 80940694#11 80940694#12 80940694#13 80940694#14 80940694#15 80940694#16 -48532953#15 -48533139 1186764830 48534972 -48532953#14 -48533140" /></vehicle><vehicle id="veh1" type="car" depart="10.0"><route edges="44923693#3 44923693#4 44923693#5 44141435#7 80940694#0 80940694#2 80940694#3 80940694#4 80940694#5 80940694#6 80940694#7 80940694#8 80940694#9 80940694#10 80940694#11 80940694#12 80940712 44141357#4 44141276#0" /></vehicle><vehicle id="veh2" type="car" depart="20.0"><route edges="-44141545#10 -44141545#9 -44141545#8 -44141545#7 -44141545#6 -44141545#5 -44141545#4 -44141545#3 -44141545#2 44141357#14 44141357#15 44141357#16 44141357#17 44141357#18 -44141435#7 -44141435#6 -798632022 -798632021 -798632020 -320348705 -423608337#1 -423608337#0" /></vehicle><vehicle id="veh3" type="car" depart="30.0"><route edges="-798855526#0 798855526#1 -681792944#0 1080170953 1042963182#1 -264592548#19 -264592548#18 -169826220#1 -169826220#0 169826196 -44923698#4" /></vehicle><vehicle id="veh4" type="car" depart="40.0"><route edges="755793903 -44141299#5 1364873685#0 1364873685#1 1364873685#2 1364873685#4 1364873685#5 1364873685#6 -82946131#2 -82946131#1 -82946131#0 44141357#6 44141357#8 44141357#9 44141357#10 80940694#7 80940694#8 80940694#9 80940694#10 80940694#11 80940694#12 80940694#13 80940694#14 -693912726#1 -693912726#0 -693912724 -693912723#0 -693912717#2 -693912717#1 -693912717#0 1184991595#2 693912719#7 -48533127#1 -48533127#0 -48533128#1 -48533128#0 -48533129#0 -176492786#2 -176492786#1 -176492786#0 -48533153#4 -48533153#3 -48533153#2 -48533153#1 1076018284" /></vehicle><vehicle id="veh5" type="car" depart="50.0"><route edges="798855524#0 1150383463 798855524#2 44141146#4 44141146#5 44141146#6 44141146#7 44141146#8 -1364873685#8 -1364873685#7 -82946131#2 -82946131#1 -82946131#0 44141357#6 44141357#8 44141357#9 44141357#10 44141357#11 44141357#12 1181124061#1 1181124061#2 1181124061#3" /></vehicle><vehicle id="veh6" type="car" depart="60.0"><route edges="48533135#1 -48532953#12 -48532953#11 -48532953#10 -48532953#9 -693912719#7 -1184991595#2 -1184991595#1 -1184991595#0 -1184991409#1 -720102664#1 -720102664#0 44830355#5 360271994#2 360271994#3 360271994#4 604050025#0 991702391#3 991702391#4 991702391#5 991702391#6 991702391#10 80940711#0 80940711#1 80940711#2 80940711#3 1182164161" /></vehicle><vehicle id="veh7" type="car" depart="70.0"><route edges="295636695#3 44923693#3 169826213#0 169826213#1 -169826226 169826213#2 -264599028#0 -264592548#21 -264592548#20 -264592548#19 -264592548#18 -169826220#1 -1041351322#1 1041351321#0 1078796843 1041351321#1 169826230 -169826222#1 1041351325" /></vehicle><vehicle id="veh8" type="car" depart="80.0"><route edges="-82710787#6 -82710787#5 -82710787#3 -82710787#1 -82710787#0 -82710788#2 -82710788#1 -82710788#0 293420639#3 -264592551#7 -264592551#6 -264592551#5 -264592551#4 -264592551#3 -264592551#2 -264592551#1" /></vehicle><vehicle id="veh9" type="car" depart="90.0"><route edges="48533135#0 48533135#1 48532953#13 48532953#14 48532953#15 44141357#1 44830358#1 44830358#2 44830358#3" /></vehicle><vehicle id="veh10" type="car" depart="100.0"><route edges="48533124 48532953#2 48532953#3 48532953#4 48532953#5 48532953#6 48532953#7 48532953#8 -693912719#7 -693912719#6 -693912719#5 -693912719#4 693912726#0 693912726#1 80940694#15 44141357#2 44141357#3 44141357#4 44141276#0 44141276#1 -1364873685#8 -82946119#4 -82946119#3 -82946119#2 -423608341 -82946112 -82946100#1 -82946100#0 -44141299#8" /></vehicle><vehicle id="veh11" type="car" depart="110.0"><route edges="693912721#2 -693912719#0 693912719#1 693912725 693912726#1 80940694#15 44141357#2 -44141125#5 -44141125#4 -44141125#3 -44141125#2 260320118 -82710787#3 293420636#0" /></vehicle><vehicle id="veh12" type="car" depart="120.0"><route edges="82710760#1 82710760#2 82710760#3 -1067871272 267447983#2 267447983#3 44141125#0 44141125#2 44141125#3 44141125#4 44141125#5 80940694#14 -693912726#1 -693912726#0 693912719#4 693912719#5 693912719#6" /></vehicle><vehicle id="veh13" type="car" depart="130.0"><route edges="169826220#0 169826220#1 264592548#18 264592548#19 264592548#20 264592548#21 264599028#0 -169826213#2" /></vehicle><vehicle id="veh14" type="car" depart="140.0"><route edges="-693912719#4 -693912719#3 -693912719#1 -693912721#2 -1184991409#2 -1184991409#1 -720102664#1 -720102664#0 44830355#5 360271994#2 360271994#3 360271994#4 604050025#0 991702391#3 991702391#4 991702391#5 991702391#6 991702391#10 80940711#0 80940711#1 80940711#2 80940711#3 80940711#4 80940711#5 80940711#6 80940711#7 80940711#8" /></vehicle><vehicle id="veh15" type="car" depart="150.0"><route edges="48533131 48532953#4 48532953#5 48532953#6 48532953#7 48532953#8 -693912719#7 -693912719#6 -693912719#5 -693912719#4 -693912719#3 -693912719#1 -693912719#0 -693912721#2 -693912721#0 -1184991409#2 -1184991409#1 -720102664#1 -720102664#0 44830355#5 44830355#7 44830355#8 264615172#1 80940712 44141357#4 44141357#5 82946131#0 82946131#1 82946131#2 -1364873685#6 -1364873685#5 -1364873685#4 -1364873685#2 -1364873685#1 -1364873685#0 -82946096#4 -82946096#3 -82946096#2 -755793904 44141545#6 -1076314749#1 -1076314749#0 -681794384 -721594685#2 1076827636 -721594685#1 -721594684#1 -721594684#0 264592548#6 264592548#7 264592548#8 264592548#10 -1127663270#1 -1127663270#0 -1076827637#0 169826228#1 169826228#2 169826228#4 169826228#5" /></vehicle><vehicle id="veh16" type="car" depart="160.0"><route edges="-1364873685#1 -1364873685#0 -82946096#4 -82946096#3" /></vehicle><vehicle id="veh17" type="car" depart="170.0"><route edges="755795857 1377215179#0 1377215179#1 80940694#3 44141545#2 -681792944#3 -776026192 -681792944#1 -681792944#0 1080170953 1042963182#1 -264592548#19 -264592548#18 -169826220#1 -169826220#0 169826196" /></vehicle><vehicle id="veh18" type="car" depart="180.0"><route edges="658868906#1 658868906#2 658868906#3 658868906#4 658868906#5 1077916786#0 1077916786#1 -1118837805 -82710760#2 -82710760#1 -82710760#0 82710788#2 82710787#0 82710787#1" /></vehicle><vehicle id="veh19" type="car" depart="190.0"><route edges="-696306284#0 44141517#5 -264592551#0 264592553#2 264592553#0 264592548#0 264592548#2 264592548#3 264592548#4 264592548#6 264592548#7 264592548#8 264592548#10" /></vehicle><vehicle id="veh20" type="car" depart="200.0"><route edges="44141357#2 44141357#3 44141357#4 44141276#0 44141276#1 -1364873685#8 -82946119#4 -82946119#3 -82946119#2 -423608341 -82946112 -82946100#1 -82946100#0 44141299#9 -1079742369#2 -1079742369#1" /></vehicle><vehicle id="veh21" type="car" depart="210.0"><route edges="-44141299#9 -44141299#8 -44141299#7 82946139#0 82946139#1 82946116 423608341 82946119#2 82946119#3 82946119#4 1364873685#8 -44141146#8 -44141146#7 -44141146#6 -44141146#5 -44141146#4 -798855524#2 -798855524#0 -293420647 44141125#5 80940694#14 -693912726#1 -693912726#0 693912719#4 693912719#5 693912719#6 693912719#7 48532953#9" /></vehicle><vehicle id="veh22" type="car" depart="220.0"><route edges="-1364873700#1 -1364873700#0 -1364873685#1 -1364873685#0 -44141299#4 -44141299#3 -44141299#2 -44141299#1 44141357#12 44141357#13 44141357#14 44141357#15 44141357#16 44141357#17 44141357#18 -44141435#7 -44141435#6 -798632022 -798632021 -798632020 -320348705 -423608337#1 -423608337#0 80940711#5 -1240077931 320348724#1 320348713#0 320348713#1 295636695#0 295636695#1 320348698 -320348701 295636695#3 44923693#3 44923693#4 169826213#0 169826213#1 -169826226 169826213#2 264599028#2 264599028#3 -44923693#1 320348726#1 -320348700 320348726#2 -320348696 320348726#4 -1076057774 264615171#3 264615171#4 44611072#1 744248532#3 264615171#1 -320348711#1 -320348711#0 -320348725#1 320348725#2 -320348724#4 320348695 320348724#5 744248532#4 80940711#10 44141522#0 -169826212#1 -169826212#0 44141522#1 -44923698#6 -44923698#4 -44923698#3 -44923698#2 -44923698#1 -44923698#0 264592548#21 44141502#0 44141502#1 44141502#3 44141502#4 44141502#5 44141502#6 1042963181 1042963182#0 -1080170953 681792944#0 776026191#0 776026191#1 1142108846 776026191#2 -798855526#0 681792944#1 776026192 681792944#3 44141545#3 44141545#4 -726131920#2 755793906#0 755793905 44141545#5 44141545#6 -1076314749#1 -1076314749#0 -681794384 -721594685#2 1076827636 -721594685#1 -721594684#1 -721594684#0 264592548#6 264592548#7 264592548#8 264592548#10 264592548#11 264592548#12 264592548#14 264592548#15 44141529#0 -1080170955 -1080170954 264592548#19 -264592548#18 -169826220#1 -1041351322#1 -1076797980 1041351323 1041351321#0 1041351321#1 169826230 -169826222#1 1041351325 169826195#0 1078796842 -169826205#4 -169826205#3 -169826207 -169826205#2 169826228#5 44141522#3 264592555#1 169826205#0 1076827641 264592555#2 264592555#3 264592555#4 -798632001#1 798632002 -798632001#0 264592555#5 264592555#6 264592553#0 264592548#0 -1362943956#1 -1362943956#0 -681794383#1 -681794383#0 -1076314747 -44141545#15 -44141545#13 -44141545#12 -44141545#11 -44141545#10 -44141545#9 -44141545#8 82946096#0 82946096#1 82946096#2 82946096#3 755793903 44141299#6 82946139#0 82946139#1 82946139#2 755793902 1364873685#4 1364873685#5 1364873685#6 -82946131#2 -82946131#1 -82946131#0 44141357#6 44141357#8 44141357#9 44141357#10 80940694#7 80940694#8 80940694#9 80940694#10 80940694#11 80940694#12 264615172#2 360271994#0 360271994#1 360271994#2 360271994#3 360271994#4 604050025#0 991702391#3 991702391#4 991702391#5 991702391#6 991702391#10 80940711#0 80940711#1 320348716#0 320348716#1 1076266783#1 1076266783#2 320348704 1181124061#5 320348687 127661012#3 127661012#4 127661012#5 127661012#6 127661012#7 127661012#8 127661012#9 1182164534 -253134120#5 -253134120#4 -253134120#3 -253134120#2 -253134120#0 -127661018#0 319405092#1 319405092#2 319405092#3 320348718#0 320348718#1 320348718#2 80940711#2 44141435#1 44141435#2" /></vehicle><vehicle id="veh23" type="car" depart="230.0"><route edges="-169826213#0 44923693#4 44923693#5 -44141435#6 -44141435#5 -44141435#4 -1377217246#4 -1377217246#3 -1377217246#2 -1377217246#1 -1377217246#0 -170062861 1181124061#4 1181124061#5 320348687 127661012#3 127661012#4 -127661018#0 319405092#1 319405092#2 319405092#3 320348718#0 320348718#1 320348718#2 -253134120#5 -253134120#4 -253134120#3 -253134120#2 -253134120#0 127661012#5 127661012#6 1182164534 127661012#7 127661012#8 127661012#9 127661012#10 80940694#7 80940694#8 80940694#9 80940694#10 80940694#11 80940694#12 80940694#13 80940694#14 -693912726#1 -693912726#0 -693912724 -693912723#0 -693912717#2 -693912717#1 -693912717#0 -1184991595#1 -1184991596 -1070560849#1 -1070560849#0 -176492662#0 48532953#0" /></vehicle><vehicle id="veh24" type="car" depart="240.0"><route edges="82710786 -82710780#0 260320118 -82710787#3 293420644 -82710787#1 -82710787#0 82946148#0 755068998#0 755068998#1" /></vehicle><vehicle id="veh25" type="car" depart="250.0"><route edges="-1128268559 82946100#1 82946112 -82946116 82946139#2 755793902 -1364873685#2 -1364873700#1 -1364873700#0 -1364873685#1 -1364873685#0 -44141299#4 -44141299#3 -44141299#2 -44141299#1 44141357#12 44141357#13 44141357#14 44141357#15 44141357#16 44141357#17 44141357#18 -44141435#7 -44141435#6 -798632022 -798632021 -798632020 -320348705 -423608337#1" /></vehicle><vehicle id="veh26" type="car" depart="260.0"><route edges="44923693#0 44923693#1 44923693#2 44923693#3 44923693#4 44923693#5 44141435#7 80940694#0 80940694#2 80940694#3 80940694#4 80940694#5 80940694#6 80940694#7 80940694#8 80940694#9 80940694#10 80940694#11 80940694#12 80940694#13" /></vehicle><vehicle id="veh27" type="car" depart="270.0"><route edges="-320348696 -320348726#2 -320348700 -320348726#1 44923693#1 44923693#2 44923693#3 44923693#4 44923693#5 44141435#7 80940694#0 80940694#2 80940694#3 80940694#4 80940694#5 80940694#6 80940694#7 80940694#8 80940694#9 80940694#10 80940694#11 80940694#12 264615172#2" /></vehicle><vehicle id="veh28" type="car" depart="280.0"><route edges="-82710765#0 -44141125#3 44141146#0 -82710787#6 -82710787#5 -82710787#3 -82710787#1 -82710787#0 -82710788#2 -82710788#1 -798855523 -82710788#0 293420639#3 -44141299#10 -1079742369#2 -1079742369#1 -1079742371 1079742367#0 1079742367#1 -44141545#11 -44141545#10 -44141545#9 -44141545#8 -44141545#7 -1076314749#1 -1076314749#0 -681794384 -721594685#2 1076827636 -721594685#1 -721594684#1 -721594684#0 264592548#6 264592548#7 264592548#8 264592548#10 -1127663270#1 -1127663270#0 -1076827637#0 -169826228#0 169826222#0 1041351325 169826195#0 1078796842 169826205#5 44923698#6" /></vehicle><vehicle id="veh29" type="car" depart="290.0"><route edges="293420639#3 -264592551#7 -264592551#6 -264592551#5 -264592551#4 -264592551#3 -264592551#2 -264592551#1 -264592551#0 264592553#2 -264592555#6 -264592555#5 -798632001#1 -798632001#0 798632002 -264592555#4 -264592555#3 -264592555#2 169826205#0 1076827641 169826205#1 -169826228#4 798631999#0 798631999#1" /></vehicle><vehicle id="veh30" type="car" depart="300.0"><route edges="82946148#1 82946148#3 798855529#0 798855529#2 798855529#3 82946119#3 82946119#4 -1364873685#7 -82946131#2 -82946131#1 -82946131#0 44141357#6 44141357#8 44141357#9 44141357#10 44141357#11 44141357#12 1181124061#1 1181124061#2 1181124061#3 1181124061#4 1181124061#5" /></vehicle><vehicle id="veh31" type="car" depart="310.0"><route edges="169826220#1 -264592548#17 44141529#0 44141529#1 44141545#4 755793906#0 755793906#2 44141299#4 44141299#5 44141299#6 82946139#0 82946139#1 82946116 423608341 -82946119#1 798855528 82946100#5 -798855529#0 82946148#4 -82946125 -293420650 -44141146#4 -44141146#3 -44141146#1 -44141146#0" /></vehicle><vehicle id="veh32" type="car" depart="320.0"><route edges="693912719#6 1184991595#3 693912719#7 48532953#9 48532953#10 48532953#11 48532953#12 48532953#13 48532953#14" /></vehicle><vehicle id="veh33" type="car" depart="330.0"><route edges="-44141299#1 44141357#12 1181124061#1 1181124061#2 1181124061#3 170062861 1377217246#0 1377217246#1 1377217246#2 1377217246#3 1377216553 1377217246#4 -44141435#3 -44141435#2 -44141435#1 77617205#1 77617205#2 991702391#10 80940711#0 1076266783#0" /></vehicle><vehicle id="veh34" type="car" depart="340.0"><route edges="48533124 48532953#2 48532953#3 48532953#4 48532953#5 48532953#6 48532953#7 48532953#8 48532953#9 48532953#10 48532953#11 48532953#12 48532953#13 48532953#14 48532953#15 44141357#1 44830358#1 44830358#2 44830358#3 44830358#4 44830358#5 44830358#6" /></vehicle><vehicle id="veh35" type="car" depart="350.0"><route edges="-320348696 -320348726#2 -320348726#1 44923693#1 44923693#2 44923693#3 44923693#4 44923693#5 44141435#7 80940694#0 80940694#2 80940694#3 80940694#4 80940694#5" /></vehicle><vehicle id="veh36" type="car" depart="360.0"><route edges="-744801990 -44141146#6 -44141146#5 -44141146#4 -798855524#2 -798855524#0 -293420647 44141125#5 80940694#14 80940694#15 80940694#16 80940694#17 1147871209 77617199#1 77617199#2 77617199#3 77617199#4 -1076018284 48533153#1 48533153#2 48533153#3 48533153#4 176492786#0 176492786#1 176492786#2 176492786#3 48535030 48535261#0 48535261#1" /></vehicle><vehicle id="veh37" type="car" depart="370.0"><route edges="320348716#1 1076266783#1 320348704 1181124061#5 320348687 127661012#3 127661012#4 -253134120#5 -253134120#4 -253134120#3 -253134120#2 -253134120#0 -127661018#0 319405092#1 319405092#2 320348718#0 320348718#1 320348718#2 319405092#3 127661012#5 127661012#6 127661012#7 127661012#8 127661012#9 127661012#10 80940694#7 80940694#8 80940694#9 80940694#10 80940694#11 80940694#12 80940712 44141357#4 44141276#0 44141276#1 -44141146#8 -44141146#7 -44141146#6" /></vehicle><vehicle id="veh38" type="car" depart="380.0"><route edges="-798631998 -169826228#1 1076827637#0 1076827637#1 -1360335933 -264592548#12 -264592548#11 -264592548#10 -264592548#8 -264592548#7 -264592548#6 721594684#0 721594684#1 -721594685#0 -681794383#0 -1076314747 44141545#16 44141545#17 1076797979 1079742371 -1079742369#0 -44141299#7 82946139#0 82946139#1 82946116 423608341 82946119#2 82946119#3 82946119#4 1364873685#8 -44141146#8 -44141146#7 -44141146#6 -44141146#5 -44141146#4 -798855524#2 -798855524#0 -293420647 44141125#5 80940694#14 80940694#15 80940694#16 -48532953#15 -48532953#14 -48533140 -1070575144#4 -1070575144#3 -1070575144#2 -1070575144#1 -1070575144#0" /></vehicle><vehicle id="veh39" type="car" depart="390.0"><route edges="-44610937#1 -44610937#0 -264592551#4 -264592551#3 1362943969#0 1362943969#1 1362943969#2 1362943956#0 1362943956#1 264592548#2 264592548#3 264592548#4 264592548#6 264592548#7 264592548#8 264592548#10 264592548#11 264592548#12 264592548#14 264592548#15 44141529#0" /></vehicle><vehicle id="veh40" type="car" depart="400.0"><route edges="44923698#3 -169826201 44923698#4 -169826196 1076797980 1041351321#0 1041351321#1 169826230 -169826222#1 -169826222#0 169826228#0 1076827637#0 1127663270#0 1127663270#1 -264592548#10 -264592548#8 -264592548#7 -264592548#6 -264592548#4 -264592548#3 -264592548#2 -1362943956#1 -1362943956#0 -681794383#1 -681794383#0 -1076314747 44141545#16 798855521#0 798855520#1 44141545#19 264592551#6 264592551#7 264592551#8 798855534 264592551#9 1076803630 264592551#10 1077916785#1 -658868906#5 -266885601 44610937#2" /></vehicle><vehicle id="veh41" type="car" depart="410.0"><route edges="1080170954 1080170955 44141529#1 44141545#4 755793906#0 755793906#2 44141299#4 44141299#5 44141299#6 82946139#0 82946139#1 82946116 423608341 82946119#2 -798855529#3 -798855529#2 423608342 798855530 -44141146#5 -44141146#4 -798855524#2 -798855524#0 -293420647 44141125#5 80940694#14 80940694#15 80940694#16 80940694#17 1147871209" /></vehicle><vehicle id="veh42" type="car" depart="420.0"><route edges="-798855531#2 -798855531#1 -798855531#0 798855530 -44141146#5" /></vehicle><vehicle id="veh43" type="car" depart="430.0"><route edges="991702391#4 991702391#5 991702391#6 77617205#6 77617205#7 77617205#8 44830355#2 -176492662#2 -1070560848#7 -1070560848#5" /></vehicle><vehicle id="veh44" type="car" depart="440.0"><route edges="-1377217246#3 -1377217246#2 -1377217246#1 -1377217246#0 -170062861 1181124061#4 -320348704 1076266783#2 -1076266783#1 -320348716#1 -320348716#0 80940711#2 44141435#1 44141435#2 44141435#3 44141435#4 1377214229 44141435#5 44141435#6 44141435#7 80940694#0 80940694#2 80940694#3 44141545#2 44141545#3 44141545#4 755793906#0 755793906#2 44141299#4 44141299#5 44141299#6 44141299#7 44141299#8 44141299#9" /></vehicle><vehicle id="veh45" type="car" depart="450.0"><route edges="-169826228#2 -169826228#1 1076827637#0 1127663270#0 1127663270#1 -264592548#10 -264592548#8 -264592548#7 -264592548#6 721594684#0 721594684#1 -721594685#0 -681794383#0 -1076314747 44141545#16 44141545#17 1076797979 1079742371 1079742369#1 1079742369#2 -44141299#9 82946100#0 1128268559 755069000#2 755069000#3 -755068998#0 82946148#1 -293420640 755068997 -755068998#2 755069000#0 755068998#3 755068996 82946100#4 82946100#5 -798855529#0 82946148#4 -82946125 -293420650 -44141146#4 -44141146#3 293420656#0 293420656#1 -293420641#0 -82710787#3" /></vehicle><vehicle id="veh46" type="car" depart="460.0"><route edges="48532953#8 -693912719#7 -693912719#6 -693912719#5 -693912719#4 -693912719#3 -693912719#1 -693912719#0 -693912721#2 -693912721#0 -1184991409#2 -1184991409#1 -720102664#1 720102663#0 720102663#1 44830355#7 44830355#8 264615172#1 80940712 44141357#4 44141276#0 44141276#1 -1364873685#8 -82946119#4 -82946119#3 -82946119#2 -423608341" /></vehicle><vehicle id="veh47" type="car" depart="470.0"><route edges="-720102664#1 -720102664#0 44830355#5 360271994#2 360271994#3 360271994#4 604050025#0 991702391#3 991702391#4 991702391#5 991702391#6 991702391#10 80940711#0 80940711#1 80940711#2 44141435#1 44141435#2 44141435#3 44141435#4 44141435#5 -798632022 -798632021" /></vehicle><vehicle id="veh48" type="car" depart="480.0"><route edges="991702391#3 991702391#4 991702391#5 991702391#6 127661012#2 127661012#3 127661012#4 -253134120#5 -253134120#4 -253134120#3 -253134120#2 -253134120#0 127661012#5 127661012#6 127661012#7 127661012#8 127661012#9 127661012#10 44141357#11 44141299#1 44141299#2 44141299#3 -755793906#2 -755793906#0 44141545#5 44141545#6 44141545#7 44141545#8 44141545#9 44141545#10 44141545#11 44141545#12 44141545#13 44141545#15 1076314747 681794383#0 681794383#1 -1362943969#2 -1362943969#1 -1362943969#0" /></vehicle><vehicle id="veh49" type="car" depart="490.0"><route edges="82946096#1 82946096#2 82946096#3 82946096#4 1364873685#0 1364873685#1 1364873685#2 1364873685#4 1364873685#5 1364873685#6 -82946131#2 -82946131#1 -82946131#0 44141357#6 44141357#8 44141357#9 44141357#10 80940694#7 80940694#8 80940694#9 80940694#10 80940694#11 80940694#12 264615172#2 360271994#0 360271994#1 -720102663#1 -720102663#0 -720102664#0" /></vehicle><vehicle id="veh50" type="car" depart="500.0"><route edges="44610966 -266885602#1 -266885602#0 658868906#4 658868906#5 1077916786#0 -264592551#10 -264592551#9 -264592551#8 -44141299#10 -44141299#9 -44141299#8 -44141299#7 -44141299#6 -44141299#5 -44141299#4 -44141299#3 -755793907 726131920#2 -44141545#4 -44141545#3 -681792944#3 -776026192 -681792944#1 -681792944#0 1080170953 -1042963182#0 -1042963181 -44141502#6 -44141502#5 -44141502#4" /></vehicle><vehicle id="veh51" type="car" depart="510.0"><route edges="320348705 798632020 798632021 798632022 44141435#6 44141435#7 80940694#0 80940694#2 80940694#3 80940694#4 80940694#5 44141299#1 44141299#2 44141299#3 44141299#4 1364873685#0 1364873685#1 -1364873700#1" /></vehicle><vehicle id="veh52" type="car" depart="520.0"><route edges="44923693#0 44923693#1 44923693#2 -295636695#3 -295636695#1 -295636695#0 -423608337#2 -423608337#1 -423608337#0 80940711#5 -1240077931 320348724#1 320348713#0 -1118580406 320348725#1 320348725#2 -320348724#4 320348695 80940711#8 264615171#1 264615171#2 1076057774 -320348726#4 -320348696 -320348726#2 -320348700 -1076057775 320348726#5 744248532#4 80940711#10 320348724#5 320348699 320348705 798632020 798632021 798632022 -44141435#5 -44141435#4 -44141435#3 -44141435#2 -44141435#1 80940711#3 1182164161 320348721#4 320348678#1 320348678#2" /></vehicle><vehicle id="veh53" type="car" depart="530.0"><route edges="1181124061#4 1181124061#5 320348687 127661012#3 127661012#4 -253134120#5 -253134120#4 -253134120#3 -253134120#2 -253134120#0 -127661018#0 319405092#1 319405092#2 320348718#0 320348718#1 320348718#2 319405092#3 127661012#5 127661012#6 127661012#7 127661012#8 127661012#9 127661012#10 80940694#7 80940694#8 80940694#9 80940694#10 80940694#11 80940694#12 80940712 44141357#4 44141276#0 44141276#1 -44141146#8 -744801991 -798855531#1 -798855531#0 -423608342 -798855529#0 82946148#4" /></vehicle><vehicle id="veh54" type="car" depart="540.0"><route edges="1070560845#0 -1070575146#0 1070560845#1 1070560849#3 -720102664#1 720102663#0 720102663#1 44830355#7 44830355#8 264615172#1" /></vehicle><vehicle id="veh55" type="car" depart="550.0"><route edges="-798855531#0 -423608342 -798855529#0 -82946148#3 -82946148#1 -82946148#0 -82710788#2 -82710788#1 -82710788#0 -293420639#2 -260320120 1076803630 264592551#10 1077916785#1 -658868906#5 -658868906#4 266885602#0 266885602#1" /></vehicle><vehicle id="veh56" type="car" depart="560.0"><route edges="-1128268559 82946100#1 82946112 -82946116 82946139#2 755793902 -1364873685#2 -1364873700#1 -1364873700#0 -1364873685#1 -1364873685#0 -44141299#4 -44141299#3 -44141299#2 -44141299#1 44141357#12 44141357#13 44141357#14 44141357#15 44141357#16 44141357#17 44141357#18 -44141435#7 -44141435#6 -798632022 -798632021 -798632020 -320348705 -423608337#1 -423608337#0 80940711#5 -1240077931 320348724#1 320348713#0 320348713#1 295636695#0 295636695#1 320348698 -320348701 295636695#3 44923693#3 44923693#4 169826213#0 169826213#1 -169826226 169826213#2 264599028#2 264599028#3 -44923693#1 320348726#1 -320348700 320348726#2 -320348696 320348726#4 -1076057774 264615171#3 264615171#4 44611072#1 744248532#3 264615171#1 -320348711#1 -320348711#0 -320348725#1 320348725#2 -320348724#4 320348695 320348724#5 744248532#4 80940711#10 44141522#0 -169826212#1 -169826212#0 44141522#1 -44923698#6 -44923698#4 -44923698#3 -44923698#2 -44923698#1 -44923698#0 264592548#21 44141502#0 44141502#1 44141502#3 44141502#4 44141502#5 44141502#6 1042963181 1042963182#0 -1080170953 681792944#0 776026191#0 776026191#1 1142108846 776026191#2 -798855526#0 681792944#1 776026192 681792944#3 44141545#3 44141545#4 -726131920#2 755793906#0 755793905 44141545#5 44141545#6 -1076314749#1 -1076314749#0 -681794384 -721594685#2 1076827636 -721594685#1 -721594684#1 -721594684#0 264592548#6 264592548#7 264592548#8 264592548#10 264592548#11 264592548#12 264592548#14 264592548#15 264592548#17 264592548#18 264592548#19 1080170954 1080170955 -169826220#1 -169826220#0 1076797980 1041351323 1041351321#0 1041351321#1 169826230 -169826222#1 1041351325 169826195#0 1078796842 -169826205#4 -169826205#3 -169826207 -169826205#2 169826228#5 44141522#3 264592555#1 169826205#0 1076827641 264592555#2 264592555#3 264592555#4 -798632001#1 798632002 -798632001#0 264592555#5 264592555#6 264592553#0 264592548#0 -1362943956#1 -1362943956#0 -681794383#1 -681794383#0 -1076314747 -44141545#15 -44141545#13 -44141545#12 -44141545#11 -44141545#10 -44141545#9 -44141545#8 82946096#0 82946096#1 82946096#2 82946096#3 755793903 44141299#6 82946139#0 44141299#7 1079742369#0 -1079742371 1079742367#0 -1076797979 -44141545#17 798855521#0 -798855520#0 798855520#1 44141545#19 -264592551#5 -264592551#4 -264592551#3 1362943969#0 1362943969#1 -264592551#2 -264592551#1 -264592551#0 -44141517#5 696306284#0 696306284#1 -696306281 44610937#1 266885601 658868906#5 1077916786#0 1077916786#1 -1118837805 -82710760#2 -82710760#1 -82710760#0 82710788#2 82946148#0 82946148#1 82946148#3 798855529#0 798855529#2 798855529#3 82946119#3 82946119#4 -1364873685#7 -1364873685#6 -1364873685#5 -82946131#2 -82946131#1 -82946131#0 44141357#6 44141357#8 44141357#9 44141357#10 80940694#7 80940694#8 80940694#9 80940694#10 80940694#11 80940694#12 264615172#2 360271994#0 360271994#1 360271994#2 360271994#3 360271994#4 604050025#0 991702391#3 991702391#4 991702391#5 991702391#6 991702391#10 80940711#0 80940711#1 80940711#2 44141435#1 44141435#2 44141435#3 -1377217246#4 1377216553 -1377217246#3 -1377217246#2 -1377217246#1 -1377217246#0 320348717#0 320348717#1 320348717#2 320348717#3 320348717#5 320348717#7 755795857 1377215179#0 1377215179#1 755795856 320348717#9 755795854 -170062861 1181124061#4 -320348704 -1076266783#1 -320348716#1 1076266783#2 1181124061#5 320348687 127661012#3 127661012#4 127661012#5 127661012#6 127661012#7 127661012#8 127661012#9 1182164534 -253134120#5 -253134120#4 -253134120#3 -253134120#2 -253134120#0 -127661018#0 319405092#1 319405092#2 319405092#3 320348718#0 320348718#1 320348718#2 44141435#4 1377214229 80940711#3 1182164161 320348721#4 320348678#1" /></vehicle><vehicle id="veh57" type="car" depart="570.0"><route edges="77617256#2 604050026#0-AddedOnRampEdge 604050026#0 604050026#1 991702391#0 991702391#1 44830355#2 44830355#3 44830355#4 44830355#5 44830355#7 44830355#8 264615172#1 80940712 44141357#4 44141276#0 44141276#1 -44141146#8 -44141146#7" /></vehicle><vehicle id="veh59" type="car" depart="590.0"><route edges="264615171#4 44141522#0 44141522#1 44141522#2 -169826228#5 -169826228#4 -169826228#2 -169826228#1 1076827637#0 1127663270#0 1127663270#1 -264592548#10 -264592548#8 -264592548#7 -264592548#6 721594684#0 721594684#1 -721594685#0 -681794383#0 -1076314747 44141545#16 44141545#17 44141545#18 44141545#19 264592551#6 264592551#7 -293420639#3 82710788#0 82710788#1 82710760#0 82710760#1 82710760#2 82710760#3 -1067871272 267447983#2" /></vehicle><vehicle id="veh60" type="car" depart="610.0"><route edges="48532953#3 48532953#4 48532953#5 48532953#6 48532953#7 48532953#8 -693912719#7 1184991595#3 -693912719#6 -693912719#5 -693912719#4 693912726#0 693912726#1 80940694#15 44141357#2 44141357#3 44141357#4 44141276#0 44141276#1 -1364873685#8 -82946119#4 -82946119#3 -82946119#2 -423608341 -82946112 -82946100#1 -82946100#0 44141299#9 -1079742369#2 1079742370 -264592551#6 -264592551#5 -264592551#4 -264592551#3 1362943969#0 1362943969#1" /></vehicle><vehicle id="veh61" type="car" depart="620.0"><route edges="1041351322#1 169826220#1 264592548#18 1080170954 1080170955 44141529#1 -44141545#3" /></vehicle><vehicle id="veh62" type="car" depart="630.0"><route edges="1184991409#0 -720102664#1 720102663#0 720102663#1 44830355#7 44830355#8 264615172#1 80940712 44141357#4 44141276#0 44141276#1 -1364873685#8 -82946119#4 -82946119#3 -798855529#3" /></vehicle><vehicle id="veh63" type="car" depart="640.0"><route edges="755068998#1 755069000#0 755069000#1 -1128268559 82946100#1 82946112 -82946116 82946139#2 755793902 -1364873685#2 -1364873685#1 -1364873685#0 -44141299#4 -44141299#3 -755793907 726131920#2 -44141545#4 -44141545#3 -681792944#3 -776026192" /></vehicle><vehicle id="veh64" type="car" depart="650.0"><route edges="48533136#1 -48532953#10 -48532953#9 -693912719#7 -1184991595#2 -1184991595#1 -1184991595#0" /></vehicle><vehicle id="veh65" type="car" depart="660.0"><route edges="755068998#3 755068996 82946119#0 82946119#1 82946119#2 82946119#3 82946119#4 -1364873685#7 -82946131#2 -82946131#1 -82946131#0 44141357#6 44141357#8 44141357#9 44141357#10 44141357#11 44141357#12 1181124061#1 1181124061#2 1181124061#3 1181124061#4 -320348704 -1076266783#1 -1076266783#0" /></vehicle><vehicle id="veh66" type="car" depart="670.0"><route edges="-755795857 320348717#9 320348717#10 44141545#2 44141545#3 44141545#4 44141545#5 755793904 -82946096#1 -82946096#0 44141545#8 44141545#9 44141545#10 441415