<?xml version="1.0" encoding="UTF-8"?>

<!-- generated on 2025-07-31 21:35:40.250066 by randomTrips.py v1_23_1+0000-676720d13f6
<configuration>
    <net-file value="cp2.net.xml"/>
    <route-file value="rl_agent.rou.xml"/>
    <prefix value="rl_agent"/>
    <trip-attributes value="departLane='best' departSpeed='max'"/>
    <fringe-factor value="5"/>
    <min-distance value="400.0"/>
    <validate value="True"/>
    <end value="1.0"/>
    <insertion-rate value="1.0"/>
</configuration>
-->

<!-- generated on 2025-07-31 21:35:40 by Eclipse SUMO duarouter Version 1.23.1
<duarouterConfiguration xmlns:xsi="http://www.w3.org/2001/XMLSchema-instance" xsi:noNamespaceSchemaLocation="http://sumo.dlr.de/xsd/duarouterConfiguration.xsd">

    <input>
        <net-file value="cp2.net.xml"/>
        <route-files value="trips.trips.xml"/>
    </input>

    <output>
        <output-file value="trips.trips.xml.tmp"/>
        <alternatives-output value="NUL"/>
        <write-trips value="true"/>
    </output>

    <time>
        <begin value="0"/>
        <end value="1.0"/>
    </time>

    <report>
        <no-warnings value="true"/>
        <ignore-errors value="true"/>
        <no-step-log value="true"/>
    </report>

</duarouterConfiguration>
-->

<routes xmlns:xsi="http://www.w3.org/2001/XMLSchema-instance" xsi:noNamespaceSchemaLocation="http://sumo.dlr.de/xsd/routes_file.xsd">
    <trip id="rl_agent0" depart="0.00" departLane="best" departSpeed="max" from="24583495#5" to="-1076749552"/>
</routes>
