<?xml version="1.0" encoding="UTF-8"?>

<!-- generated on 2025-07-06 16:22:56.069705 by randomTrips.py v1_23_1+0000-676720d13f6
<configuration>
    <net-file value="rg.net.xml"/>
    <output-trip-file value="rg.rou.xml"/>
    <route-file value="rg.trips.xml"/>
    <trip-attributes value="departLane='best' departSpeed='max' departPos='random'"/>
    <vehicle-class value="passenger"/>
    <validate value="True"/>
    <end value="1000.0"/>
</configuration>
-->

<!-- generated on 2025-07-06 16:22:55 by Eclipse SUMO duarouter Version 1.23.1
<duarouterConfiguration xmlns:xsi="http://www.w3.org/2001/XMLSchema-instance" xsi:noNamespaceSchemaLocation="http://sumo.dlr.de/xsd/duarouterConfiguration.xsd">

    <input>
        <net-file value="rg.net.xml"/>
        <route-files value="rg.rou.xml"/>
    </input>

    <output>
        <output-file value="rg.trips.xml"/>
        <alternatives-output value="NUL"/>
    </output>

    <time>
        <begin value="0.0"/>
        <end value="1000.0"/>
    </time>

    <report>
        <no-warnings value="true"/>
        <ignore-errors value="true"/>
        <no-step-log value="true"/>
    </report>

</duarouterConfiguration>
-->

<routes xmlns:xsi="http://www.w3.org/2001/XMLSchema-instance" xsi:noNamespaceSchemaLocation="http://sumo.dlr.de/xsd/routes_file.xsd">
    <vType id="passenger" vClass="passenger"/>
    <vehicle id="0" type="passenger" depart="0.00" departLane="best" departPos="random" departSpeed="max">
        <route edges="24584383#2 -24584383#2 -24584383#1 -24584383#0 -1354558617 -675478334#9 -675478334#8 -675478334#7 -675478334#5 -1072963716#1 -1072963716#0"/>
    </vehicle>
    <vehicle id="1" type="passenger" depart="1.00" departLane="best" departPos="random" departSpeed="max">
        <route edges="-371342951#2 -371342951#1 -371342951#0 1287398725#3 1066077571#0 1066077571#1 1066077571#2 447141145 447141146 570413590 570427355#0 570427355#1 722082933 447143201#0 447143201#1 24577102 717907819#0 717907819#1 717907819#2 24584388#0 24584388#1 24584388#2 24584389#3 714990514#0 714990514#1 24584398#0 24584398#1 24584398#2 24584398#3 24584398#4 570413587#0 570413587#1 24584423#0 24584423#1 24584423#2 24584423#3 80678182#0 80678182#1 80678182#2 24584502 24584500#5 24584500#6 24584500#7 24584503#0 24584503#1 -24584503#1"/>
    </vehicle>
    <vehicle id="2" type="passenger" depart="2.00" departLane="best" departPos="random" departSpeed="max">
        <route edges="24584504#2 1072960942 -1072960942 -24584504#2 -24584504#1 -24584504#0 -24584503#1 -24584503#0 24584500#0 24584500#1 24584500#2 24584500#3 24584501 -80678182#2 -80678182#1 -80678182#0 581245357 581245359 24584414#0"/>
    </vehicle>
    <vehicle id="3" type="passenger" depart="3.00" departLane="best" departPos="random" departSpeed="max">
        <route edges="700305760#0 44277692#1 44277692#2 447141149#1 447141149#2 665150702 554665390 570526052 24583320 570526051 447141152 48964552#0 48964552#1 48964552#2 48964552#3 48964552#4 48964552#5 998197440 447141154 1278775919 24583771#0 24584396 1271156421#0 1271156421#1 1271156421#2 -1271156421#2"/>
    </vehicle>
    <vehicle id="4" type="passenger" depart="4.00" departLane="best" departPos="random" departSpeed="max">
        <route edges="1073010466 -24584511#7 -24584511#6 -24584511#5 -24584511#4 -24584511#3 686684499 -24584510 24584500#3 24584501 -80678182#2 -80678182#1 -80678182#0 581245357 581245359 24584414#0 1072960941#0 -24584381#10 -24584381#9 -24584381#8 -24584381#7 675478334#0 675478334#1 675478334#2 675478334#3 675478334#4 -1072963716#1 -1072978656#0"/>
    </vehicle>
    <vehicle id="5" type="passenger" depart="5.00" departLane="best" departPos="random" departSpeed="max">
        <route edges="-24584418#3 -24584418#2 1271156421#2 1271156421#3 1271156421#4 1271156413#0 1271156413#1 1072960941#0 138947059#1"/>
    </vehicle>
    <vehicle id="6" type="passenger" depart="6.00" departLane="best" departPos="random" departSpeed="max">
        <route edges="-1072963716#0 24584384#3 24584384#4 24584384#5 -24584381#2 -24584381#1 -24584381#0 48964552#5 998197440 447141154 1278775919 24583771#0 24584396 1271156421#0 -24584421#1 -24584420#0"/>
    </vehicle>
    <vehicle id="7" type="passenger" depart="7.00" departLane="best" departPos="random" departSpeed="max">
        <route edges="24584385#0 24584385#1 24584385#2 80926764#5 80926764#6 717907807#1 717907807#2 717907807#3 717907807#4 717907807#5 717907807#6 24583320 570526051 447141152 570526053 447141150#0 447141150#1 447141149#0 447141149#1 447141149#2 665150702 554665390 24583321#0 24583321#1 24583321#2 997761553 997761552#0 997761552#1 -24583487#12 -24583487#11 24583487#11"/>
    </vehicle>
    <vehicle id="8" type="passenger" depart="8.00" departLane="best" departPos="random" departSpeed="max">
        <route edges="-24584420#1 24584421#1 -1271156421#0 24584397 24583771#2 24583773 447141155#0 447141155#1 447141155#2 31756488 665150699#0 1126838107 447141143#1-AddedOnRampEdge 447141143#1 447141143#2 665150665 998197441 447141141 998197440 24584378#0 24584378#1 24584378#2 24584378#3 24584378#5 24584378#7 24584378#8 24584378#9 24584378#10 447141140#2 24584377#0 24584377#1 24584377#2"/>
    </vehicle>
    <vehicle id="9" type="passenger" depart="9.00" departLane="best" departPos="random" departSpeed="max">
        <route edges="48964551 1159291804 447141155#0 447141155#1 447141155#2 31756488 665150699#0 1126838107 447141143#1-AddedOnRampEdge 447141143#1 447141143#2 665150665 998197441 447141151#0 447141151#1 447141151#2 447141151#3 447141151#5 447141151#6 447141151#7 447141150#0 111695525#0 -1292286059 686685084#0 -1060463406#1"/>
    </vehicle>
    <vehicle id="10" type="passenger" depart="10.00" departLane="best" departPos="random" departSpeed="max">
        <route edges="447141151#7 447141150#0 447141150#1 447141149#0 447141149#1 447141149#2 665150702 554665390 570526052 24583320 570526051 447141152 48964552#0 48964552#1 48964552#2 48964552#3 48964552#4 48964552#5 998197440 447141154 1278775919 24583771#0 24584396 1271156421#0 -24584421#1 24584420#1"/>
    </vehicle>
    <vehicle id="11" type="passenger" depart="11.00" departLane="best" departPos="random" departSpeed="max">
        <route edges="-80926770 111695524#5 44277692#1 44277692#2 447141149#1 447141149#2 665150702 554665390 24583321#0 24583321#1 24583321#2 997761553 997761552#0 997761552#1 994825990#0 994825990#1 994825990#2 447141148 572511731 447141147#0 447141147#1 447141147#2 24583324#0 24583324#1 590609994#0 590609994#1 717907807#0 -80926764#6 -80926764#5 -80926764#4 -80926764#3 -80926764#2 -80926764#1 -80926764#0 -24584383#4"/>
    </vehicle>
    <vehicle id="12" type="passenger" depart="12.00" departLane="best" departPos="random" departSpeed="max">
        <route edges="80926764#4 80926764#5 80926764#6 717907807#1 717907807#2 717907807#3 717907807#4 717907807#5 717907807#6 24583320 570526051 447141152 570526053 447141150#0 111695525#0 1066625120#0 1066625120#1 1066625120#2 -44277694#4 80926778#6 80926778#7 80926778#8 80926778#9 80926778#10 695576804#0 695576804#1 -80926781#1"/>
    </vehicle>
    <vehicle id="13" type="passenger" depart="13.00" departLane="best" departPos="random" departSpeed="max">
        <route edges="-1250154743#0 80926768#5 278577243#2 278577243#3 278577243#4 998197441 447141141 998197440 24584378#0 24584378#1 24584378#2 24584378#3 24584378#5 24584378#7 24584378#8 24584378#9 24584378#10 447141140#2 722082949#0 722082949#1 447141153#0 611866595#0 611866595#1 611866595#2 611866595#3 611866595#4 611866594 611866596#0 611866596#1 1066077570#0 1066077570#1 1066077570#2 447141137#0 1287398725#0 164786644#0 164786644#1 164786644#2 -164786644#2 -164786644#1 -164786644#0"/>
    </vehicle>
    <vehicle id="14" type="passenger" depart="14.00" departLane="best" departPos="random" departSpeed="max">
        <route edges="611866595#0 611866595#1 611866595#2 611866595#3 24584386 -611866592#2 -80926782 -24584392#4 -24584392#2 -24584392#1 -24584392#0 24584391#0 24584394#0 24584378#3 24584378#5 24584378#7"/>
    </vehicle>
    <vehicle id="15" type="passenger" depart="15.00" departLane="best" departPos="random" departSpeed="max">
        <route edges="447141155#0 447141155#1 447141155#2 502579562 44188368#0 44188368#1 44188368#2 -24584503#4 -24584503#3 -24584503#2 24584503#2"/>
    </vehicle>
    <vehicle id="16" type="passenger" depart="16.00" departLane="best" departPos="random" departSpeed="max">
        <route edges="24583332#4 24583332#6 24583332#7 554665390 570526052 24583320 570526051 447141152 570526053 447141150#0 111695525#0 1066625120#0 1066625120#1 1066625120#2 -44277694#4 80926778#6 80926778#7 80926778#8 80926778#9 80926778#10"/>
    </vehicle>
    <vehicle id="17" type="passenger" depart="17.00" departLane="best" departPos="random" departSpeed="max">
        <route edges="1066625119#0 1066625119#1 1066625119#2 1066625119#3 717907819#4 717907819#5 23134746#0 23134746#1 763520419#0 749606293 1066077570#0 1066077570#1 1066077570#2 447141137#0 447141137#1 447141137#2 758753881#0 758753881#1 758753882 590609994#0 590609994#1 717907807#0 717907807#1 717907807#2 717907807#3 717907807#4 717907807#5 717907807#6 24583320 570526051 447141152 570526053 447141150#0 447141150#1 447141149#0 447141149#1 447141149#2 665150702 554665390 24583321#0 24583321#1 24583321#2 997761553 997761552#0 997761552#1 -24583487#12 -24583487#11 -24583487#10 -24583487#9 -24583487#8 -24583487#7 -24583487#6 -24583487#4 -24583487#3 -24583487#2 -24583487#1 -24583487#0 24583487#0 24583487#1 24583487#2 24583487#3 24583487#4 24583487#6 24583487#7 24583487#8"/>
    </vehicle>
    <vehicle id="18" type="passenger" depart="18.00" departLane="best" departPos="random" departSpeed="max">
        <route edges="581245359 24584414#0 -1271156413#1 -1271156413#0 -1271156421#4 -1271156421#3 -1271156421#2 -1271156421#1 24584422#0 24584422#1 1271156414#1 24584380#9"/>
    </vehicle>
    <vehicle id="19" type="passenger" depart="19.00" departLane="best" departPos="random" departSpeed="max">
        <route edges="665150699#0 1126838107 447141143#1-AddedOnRampEdge 447141143#1 447141143#2 665150665 998197441 447141141 998197440 24584378#0 24584378#1 24584378#2 24584378#3 24584378#5 24584378#7 24584378#8 686696454#2 24584392#2 24584375#8 24584375#9 24584375#10"/>
    </vehicle>
    <vehicle id="20" type="passenger" depart="20.00" departLane="best" departPos="random" departSpeed="max">
        <route edges="24584420#6 -80926773#1 -1271156421#3 -1271156421#2 -1271156421#1 -1271156421#0 24584397 24583771#2 24583773 447141155#0 447141155#1 447141155#2 31756488 665150699#0 1126838107 447141143#1-AddedOnRampEdge 447141143#1 447141143#2 665150665 998197441 447141151#0 447141151#1 447141151#2 447141151#3 447141151#5 447141151#6 80926781#0 80926781#1 -695576804#1 -1072954052#2 -1122026496#0"/>
    </vehicle>
    <vehicle id="21" type="passenger" depart="21.00" departLane="best" departPos="random" departSpeed="max">
        <route edges="-24584420#8 -24584420#7 -80926773#1 -1271156421#3 -1271156421#2 -1271156421#1 -1271156421#0 24584397 24583771#2 24583773 447141155#0 447141155#1 447141155#2 31756488 665150699#0 665150699#2 749606303#0 749606303#1 749606302#0 749606302#1 749606302#2 278577251 749606304#0 749606304#1 278577243#0 -686834805#7 -686834805#6 -686834805#5 -686834805#3 -686834805#2 -686834805#1 -686834805#0"/>
    </vehicle>
    <vehicle id="22" type="passenger" depart="22.00" departLane="best" departPos="random" departSpeed="max">
        <route edges="-1122257058 -24584392#5 -24584392#4 -24584392#2 -686696454#2 24584380#1 24584380#2 24584380#3 24584380#4 24584380#5 24584380#6 24584380#7 24584380#8 24584380#9 24584379 1278775919 24583771#0 24583771#1 24583771#2 24583773 447141155#0 447141155#1 447141155#2 502579562 44188368#0 44188368#1 -24584509 24584508#1 -24584507#1"/>
    </vehicle>
    <vehicle id="23" type="passenger" depart="23.00" departLane="best" departPos="random" departSpeed="max">
        <route edges="-1271156413#1 1271156413#1 1072960941#0 -24584381#10 -24584381#9 -24584381#8 -24584381#7 675478334#0 675478334#1 675478334#2 675478334#3 675478334#4 -675478334#4"/>
    </vehicle>
    <vehicle id="24" type="passenger" depart="24.00" departLane="best" departPos="random" departSpeed="max">
        <route edges="24584381#8 24584381#9 24584381#10 138947059#1 24584381#14 24584381#15 24584381#16 24584381#17 447141139 447141140#0 447141140#1 447141140#2 24584377#0 24584377#1 24584377#2 24584377#3 24584377#4 24584377#5 24584377#6 24584377#7 24584377#8 24584377#9 447141152 570526053 447141150#0 111695525#0 1066625120#0 1066625120#1 1066625120#2 1066625120#3 1066625120#4"/>
    </vehicle>
    <vehicle id="25" type="passenger" depart="25.00" departLane="best" departPos="random" departSpeed="max">
        <route edges="1064518284 447141138#0 447141138#1 611866597 24584390#0 24584390#1 24584389#0 24584389#1 24584389#2 24584389#3 782774053 722082950 570413589#0 570413589#1 570413589#2 447141139 24584380#0 24584380#1 24584380#2 24584380#3 24584380#4 24584380#5 24584380#6 24584380#7 24584380#8 24584380#9 24584379 1278775919 24583771#0 24584396 1271156421#0 -24584421#1 -24584421#0"/>
    </vehicle>
    <vehicle id="26" type="passenger" depart="26.00" departLane="best" departPos="random" departSpeed="max">
        <route edges="-24584512#0 24584511#2 686684499 -24584510 24584500#3 24584501 -80678182#2 -80678182#1 -80678182#0 1271156422 -1271156421#5 -1271156421#4 -1271156421#3 -1271156421#2 -1271156421#1 -1271156421#0 24584397 24583771#2 24583773 447141155#0 447141155#1 447141155#2 31756488 665150699#0 665150699#2 749606303#0 749606303#1 749606302#0 752137329#0 752137329#1"/>
    </vehicle>
    <vehicle id="27" type="passenger" depart="27.00" departLane="best" departPos="random" departSpeed="max">
        <route edges="24584384#5 24584381#3 24584381#4 24584378#2 24584378#3 24584378#5 24584378#7 24584378#8 24584380#1"/>
    </vehicle>
    <vehicle id="28" type="passenger" depart="28.00" departLane="best" departPos="random" departSpeed="max">
        <route edges="-24584383#0 -1354558617 24584377#7 24584377#8 24584377#9 447141152 48964552#0 48964552#1 48964552#2 48964552#3 48964552#4 48964552#5 998197440 447141154 1278775919 24583771#0 24584396 1271156421#0 1271156421#1 1271156421#2 1271156421#3 1271156421#4 1271156421#5 1271156420#1 80678182#0 80678182#1 80678182#2 24584502 24584500#5 24584500#6 24584500#7 24584503#0 24584503#1"/>
    </vehicle>
    <vehicle id="29" type="passenger" depart="29.00" departLane="best" departPos="random" departSpeed="max">
        <route edges="-24584381#17 -24584381#16 -24584381#15 -24584381#14 -138947059#1 -1072960941#0 -1271156413#1 -1271156413#0 -1271156421#4 -1271156421#3 -1271156421#2 -1271156421#1 -1271156421#0 24584397 24583771#2 24583773 447141155#0 447141155#1 447141155#2 502579562 44188368#0 -24584511#9 -24584511#8 -1073010466 -1072960945#1 1072960945#1"/>
    </vehicle>
    <vehicle id="30" type="passenger" depart="30.00" departLane="best" departPos="random" departSpeed="max">
        <route edges="994825990#1 994825990#2 447141148 572511731 447141147#0 447141147#1 447141147#2 24583324#0 24583324#1 590609994#0 590609994#1 717907807#0 -80926764#6 -80926764#5 -80926764#4 -80926764#3 -80926764#2 -80926764#1 -80926764#0 -24584383#4 24584383#4"/>
    </vehicle>
    <vehicle id="31" type="passenger" depart="31.00" departLane="best" departPos="random" departSpeed="max">
        <route edges="24583488#3 24583488#4 24583488#5 -24583489#7 -24583489#6 -24583489#5 -24583489#3 -24583489#2 -24583489#1 -24583489#0 24583332#1 24583332#2 24583332#4 24583332#6 24583332#7 554665390 570526052 24583320 570526051 447141152 48964552#0 48964552#1 48964552#2 48964552#3 48964552#4 48964552#5 998197440 447141154 1278775919 24583771#0 24584396 1271156421#0 24584422#0 24584416#1"/>
    </vehicle>
    <vehicle id="32" type="passenger" depart="32.00" departLane="best" departPos="random" departSpeed="max">
        <route edges="611866592#1 -80926782 -24584392#4 -24584392#2 -686696454#2 24584380#1 24584380#2 24584380#3 24584380#4 24584380#5 24584380#6 24584380#7 24584380#8 24584380#9 24584379 1278775919 24583771#0 24583771#1 24583771#2 24583773 447141155#0 447141155#1 447141155#2 502579562 44188368#0 44188368#1"/>
    </vehicle>
    <vehicle id="33" type="passenger" depart="33.00" departLane="best" departPos="random" departSpeed="max">
        <route edges="-24584420#9 -24584420#8 -24584420#7 -80926773#1 -1271156421#3 -1271156421#2 -1271156421#1 -1271156421#0 24584397 24583771#2 24583773 447141155#0 447141155#1 447141155#2 31756488 665150699#0 1126838107 447141143#1-AddedOnRampEdge 447141143#1 447141143#2 665150665 998197441 447141141 998197440 24584378#0 24584378#1 675478334#0 675478334#1 675478334#2 675478334#3 -1072963717#1 1072978656#0 1072978656#1 1072978656#2 1072978656#3 -1072978656#3 -1072978656#2"/>
    </vehicle>
    <vehicle id="34" type="passenger" depart="34.00" departLane="best" departPos="random" departSpeed="max">
        <route edges="-686834805#5 1183653755 1183653754#1 -1250154743#0 80926768#5 278577243#2 278577243#3 278577243#4 998197441 447141151#0 447141151#1 447141151#2 447141151#3 447141151#5 447141151#6 447141151#7 447141150#0 447141150#1 447141149#0 447141149#1 447141149#2 665150702 554665390 24583321#0 24583321#1 24583321#2 997761553 997761552#0 997761552#1 -24583487#12 -24583487#11 -24583489#13 -24583489#12 -24583489#11 -24583489#9 -24583489#8 -24583488#5 -24583488#4 -24583488#3 -24583488#2 612734122 -612734122"/>
    </vehicle>
    <vehicle id="35" type="passenger" depart="35.00" departLane="best" departPos="random" departSpeed="max">
        <route edges="-24584416#3 -24584418#2 1271156421#2 1271156421#3 1271156421#4 1271156421#5 1271156420#1 581245357 581245359 581245363#0 581245363#2 581245363#3 581245363#4 581522562 570413588#0 570413588#1 714990513#0 714990513#1 714990513#2 714990513#3 570413589#0 570413589#1 570413589#2 447141139 447141140#0 447141140#1 447141140#2 722082949#0 722082949#1 447141153#0 447141153#1 24584389#0 24584389#1 1066625119#0 1066625119#1 1066625119#2 1066625119#3 717907819#4 717907819#5 23134746#0 23134746#1 763520419#0"/>
    </vehicle>
    <vehicle id="36" type="passenger" depart="36.00" departLane="best" departPos="random" departSpeed="max">
        <route edges="686685084#0 -1060463406#1 -1060463406#0 1060463405#2 1292286060#0 1066625120#1 1066625120#2 1066625120#3 80926768#2 -80926768#2"/>
    </vehicle>
    <vehicle id="37" type="passenger" depart="37.00" departLane="best" departPos="random" departSpeed="max">
        <route edges="24584388#1 24584388#2 24584389#3 782774053 722082950 570413589#0 570413589#1 570413589#2 447141139 24584380#0 24584380#1 24584380#2 24584380#3 24584380#4 24584380#5 24584380#6 24584380#7 24584380#8 24584380#9 24584379 1278775919 24583771#0 24583771#1 24583771#2 24583773 447141155#0 447141155#1 447141155#2 31756488 665150699#0 665150699#2 749606303#0 749606303#1 749606302#0 749606302#1 749606302#2 278577251 749606304#0 749606304#1 278577243#0 -686834805#7 -686834805#6 -686834805#5 -1072978660#1 -1072978660#0 1072978660#0 1072978660#1"/>
    </vehicle>
    <vehicle id="38" type="passenger" depart="38.00" departLane="best" departPos="random" departSpeed="max">
        <route edges="717907817#0 717907817#1 717907817#2 717907817#3 717907817#4 717907817#5 24577101#1 722082948#0 722082948#1 447141145 447141146 570413590 570427355#0 570427355#1 722082933 447143201#0 447143201#1 24577102 717907819#0 717907819#1 717907819#2 24584388#0 24584388#1 24584388#2 24584389#3 782774053 722082950 570413589#0 570413589#1 570413589#2 447141139 24584380#0 24584380#1 24584380#2 24584380#3 24584380#4 24584380#5 24584380#6 24584380#7 24584380#8 24584380#9 24584379 1278775919 24583771#0 24583771#1 24583771#2 24583773 447141155#0 447141155#1 447141155#2 31756488 665150699#0 665150699#2 749606303#0 749606303#1 749606302#0 749606302#1 749606302#2 278577251 749606304#0 749606304#1 278577243#0 -686834805#7 -686834805#6 -686834805#5 -686834805#3 -686834805#2 1183653757#0 1183653757#1"/>
    </vehicle>
    <vehicle id="39" type="passenger" depart="39.00" departLane="best" departPos="random" departSpeed="max">
        <route edges="-24584511#8 -1073010466 -1072960945#1 -1072960945#0 -24584512#1 -24584512#0"/>
    </vehicle>
    <vehicle id="40" type="passenger" depart="40.00" departLane="best" departPos="random" departSpeed="max">
        <route edges="24583489#1 -24583489#1 -24583489#0 24583332#1 24583332#2 24583332#4 24583332#6 24583332#7 554665390 570526052 24583320 570526051 447141152 570526053 447141150#0 111695525#0 1066625120#0 1066625120#1 1066625120#2 -44277694#4"/>
    </vehicle>
    <vehicle id="41" type="passenger" depart="41.00" departLane="best" departPos="random" departSpeed="max">
        <route edges="24584375#6 24584375#7 24584375#8 24584375#9 24584375#10 447141153#0 447141153#1 24584389#0 24584389#1 24584389#2 24584389#3 714990514#0 714990514#1 24584398#0 24584398#1 24584398#2 24584398#3 24584398#4 581522559 570413588#0 570413588#1 714990513#0 714990513#1 714990513#2"/>
    </vehicle>
    <vehicle id="42" type="passenger" depart="42.00" departLane="best" departPos="random" departSpeed="max">
        <route edges="1072960944#1 1072960943#1 -24584511#3 686684499 -24584510 24584500#3 24584501 -80678182#2 -80678182#1 -80678182#0 1271156422 -1271156421#5 -1271156421#4 -1271156421#3 -1271156421#2 -1271156421#1 -1271156421#0 24584397 24583771#2 24583773 447141155#0 447141155#1 -24584424#5"/>
    </vehicle>
    <vehicle id="43" type="passenger" depart="43.00" departLane="best" departPos="random" departSpeed="max">
        <route edges="997761553 997761552#0 997761552#1 994825990#0 994825990#1 994825990#2 447141148 572511731 447141147#0 447141147#1 447141147#2 758753883 1248777180#0 1287398725#0 164786644#0 164786644#1 164786644#2 164786644#3"/>
    </vehicle>
    <vehicle id="44" type="passenger" depart="44.00" departLane="best" departPos="random" departSpeed="max">
        <route edges="-1183653758 -1183653757#0 -686834805#1 -686834805#0 80926778#1 80926778#2 80926778#3 80926778#4 80926778#5 80926778#6 80926778#7 80926778#8 1072954053#0 1072954053#1 1122028504#0 1122028504#1 1122028504#2 -1122028504#2 -1122028504#1 -1122028504#0"/>
    </vehicle>
    <vehicle id="45" type="passenger" depart="45.00" departLane="best" departPos="random" departSpeed="max">
        <route edges="-1271156421#4 -80926773#0 1271156412#2 1271156413#1 1072960941#0 138947059#1 24584381#14 24584381#15 24584381#16 24584381#17"/>
    </vehicle>
    <vehicle id="46" type="passenger" depart="46.00" departLane="best" departPos="random" departSpeed="max">
        <route edges="447141138#0 447141138#1 611866597 24584390#0 24584390#1 24584389#0 24584389#1 24584389#2 24584389#3 782774053 722082950 570413589#0 570413589#1 570413589#2 447141139 447141140#0 447141140#1 447141140#2 24584377#0 24584377#1 24584377#2 24584377#3 24584377#4 24584377#5 24584377#6 24584377#7 24584377#8 24584377#9 447141152 570526053 447141150#0 447141150#1 447141149#0 447141149#1 447141149#2 1219699878#0 1219699878#1 1219699878#2 24583330#0 24583330#1 1122215532#0 -1122215528#1 -1122215528#0 1122215528#0"/>
    </vehicle>
    <vehicle id="47" type="passenger" depart="47.00" departLane="best" departPos="random" departSpeed="max">
        <route edges="-1122215537 -24583489#1 -24583489#0 24583332#1 24583332#2 24583332#4 24583332#6 24583332#7 554665390 570526052 24583320 570526051 447141152 48964552#0 48964552#1 48964552#2 48964552#3 48964552#4 48964552#5 998197440 447141154 1278775919 24583771#0 24583771#1 24583771#2 24583773 447141155#0 447141155#1 447141155#2 502579562 44188368#0 -24584511#9 -24584511#8 -1073010466 1072960946#2"/>
    </vehicle>
    <vehicle id="48" type="passenger" depart="48.00" departLane="best" departPos="random" departSpeed="max">
        <route edges="997761552#1 994825990#0 994825990#1 994825990#2 447141148 24583327#0 24583327#1 24583327#2 24583327#3 24583327#4 24583327#5 24583327#6 24583327#7 24583327#8"/>
    </vehicle>
    <vehicle id="49" type="passenger" depart="49.00" departLane="best" departPos="random" departSpeed="max">
        <route edges="80926778#1 80926778#2 -80926768#3 -80926768#2 111695524#1 111695524#2 111695524#3 111695524#5 44277692#1 44277692#2 447141149#1 447141149#2 665150702 554665390 24583321#0 24583321#1 24583321#2 997761553 997761552#0 997761552#1 -24583487#12 -24583487#11 -24583489#13 -24583489#12 -24583489#11 -24583489#9 -24583489#8 -24583488#5 -24583488#4 -24583488#3 -24583488#2 612734122 612734126#2"/>
    </vehicle>
    <vehicle id="50" type="passenger" depart="50.00" departLane="best" departPos="random" departSpeed="max">
        <route edges="-1072960938 -24584414#1 -1271156413#1 -1271156413#0 -1271156421#4 -1271156421#3 -1271156421#2 -1271156421#1 -24584421#1 -24584421#0 24584424#4"/>
    </vehicle>
    <vehicle id="51" type="passenger" depart="51.00" departLane="best" departPos="random" departSpeed="max">
        <route edges="24584415#0 24584415#1 24584379 1278775919 24583771#0 24583771#1 24583771#2 24583773 447141155#0 447141155#1 447141155#2 31756488 665150699#0 1126838107 447141143#1-AddedOnRampEdge 447141143#1 447141143#2 665150665 998197441 447141151#0 447141151#1 447141151#2 447141151#3 447141151#5 447141151#6 447141151#7 447141150#0 447141150#1 447141149#0 447141149#1 447141149#2 1219699878#0 1219699878#1 1219699878#2 24583332#4"/>
    </vehicle>
    <vehicle id="52" type="passenger" depart="52.00" departLane="best" departPos="random" departSpeed="max">
        <route edges="-24584512#0 24584511#2 686684499 -24584510 24584500#3 24584501 -80678182#2 -80678182#1 -80678182#0 581245357 581245359 581245363#0 581245363#2 581245363#3 581245363#4 581522562 570413588#0 570413588#1 714990513#0 714990513#1 714990513#2 714990513#3 570413589#0 570413589#1 570413589#2 447141139 447141140#0 447141140#1 447141140#2 24584377#0 24584377#1 24584377#2 24584377#3 24584377#4 24584377#5 24584377#6 24584377#7 24584384#0"/>
    </vehicle>
    <vehicle id="53" type="passenger" depart="53.00" departLane="best" departPos="random" departSpeed="max">
        <route edges="-1271156421#5 -1271156421#4 -1271156421#3 -1271156421#2 -1271156421#1 -1271156421#0 24584397 24583771#2 24583773 447141155#0 447141155#1 447141155#2 31756488 665150699#0 1126838107 447141143#1-AddedOnRampEdge 447141143#1 447141143#2 665150665 998197441 447141151#0 447141151#1 447141151#2 447141151#3 447141151#5 447141151#6 447141151#7 447141150#0 447141150#1 447141149#0 447141149#1 447141149#2 665150702 554665390 24583321#0 24583321#1 24583321#2 997761553 997761552#0 997761552#1 -24583487#12 -24583487#11 -24583489#13 -24583489#12 -24583489#11 -24583489#9 -24583489#8 -24583489#7 1122220358#0"/>
    </vehicle>
    <vehicle id="54" type="passenger" depart="54.00" departLane="best" departPos="random" departSpeed="max">
        <route edges="1122230047#1 1287398725#2 1287398725#3 1066077571#0 1066077571#1 1066077571#2 447141145 447141146 570413590 570427355#0 570427355#1 722082933 447143201#0 447143201#1 24577102 717907819#0 717907819#1 717907819#2 24584388#0 24584388#1 24584388#2 24584389#3 714990514#0 714990514#1 24584398#0 24584398#1 24584398#2 24584398#3 24584398#4 570413587#0 570413587#1 24584423#0 24584423#1 24584423#2 24584423#3 80678182#0 80678182#1 80678182#2"/>
    </vehicle>
    <vehicle id="55" type="passenger" depart="55.00" departLane="best" departPos="random" departSpeed="max">
        <route edges="686685084#0 -686685084#0 1292286059 44277692#1 44277692#2 447141149#1 447141149#2 665150702 554665390 570526052 24583320 24584375#0 24584375#1 24584375#2 24584375#3 24584375#4 24584375#5 24584375#6 24584375#7 24584375#8 24584375#9 24584375#10 447141153#0 447141153#1 24584389#0 24584389#1 24584389#2 24584389#3 714990514#0 714990514#1 24584398#0 24584398#1 24584398#2 24584398#3 24584398#4 570413587#0 570413587#1 581245361 -581245361"/>
    </vehicle>
    <vehicle id="56" type="passenger" depart="56.00" departLane="best" departPos="random" departSpeed="max">
        <route edges="1292286060#0 111695524#5 44277692#1 44277692#2 447141149#1 447141149#2 665150702 554665390 570526052 24583320 24584375#0 24584375#1 24584375#2 24584375#3 24584375#4 24584375#5 24584375#6 24584375#7 24584375#8 24584375#9 24584375#10 447141153#0 447141153#1 24584389#0 24584389#1 24584389#2 24584389#3 782774053 722082950 570413589#0 570413589#1 570413589#2 -24584381#17 -24584381#16 -24584381#15 -24584381#14 -24584409#3"/>
    </vehicle>
    <vehicle id="57" type="passenger" depart="57.00" departLane="best" departPos="random" departSpeed="max">
        <route edges="717907814#7 717907814#8 778199266#0 778199266#1 778199266#2 1064518284 447141138#0 447141138#1 611866597 24584390#0 24584390#1 24584389#0 24584389#1 24584389#2 24584389#3 782774053 722082950 570413589#0 570413589#1 570413589#2 447141139 24584380#0 24584380#1 24584380#2 24584380#3 24584380#4 24584380#5 24584380#6 24584380#7 675478334#0 675478334#1 675478334#2 675478334#3 675478334#4 675478334#5"/>
    </vehicle>
    <vehicle id="58" type="passenger" depart="58.00" departLane="best" departPos="random" departSpeed="max">
        <route edges="-675478334#5 675478334#5 675478334#7 675478334#8 675478334#9 1354558617 24584383#0 24584383#1 24584383#2 24584383#3"/>
    </vehicle>
    <vehicle id="59" type="passenger" depart="59.00" departLane="best" departPos="random" departSpeed="max">
        <route edges="24584379 1278775919 24583771#0 24583771#1 24583771#2 24583773 447141155#0 447141155#1 447141155#2 31756488 665150699#0 1126838107 447141143#1-AddedOnRampEdge 447141143#1 447141143#2 665150665 998197441 447141151#0 447141151#1 447141151#2 447141151#3 447141151#5 447141151#6 447141151#7 447141150#0 447141150#1 447141149#0 447141149#1 447141149#2 665150702 554665390 570526052 24583320 24584375#0 24584375#1 24584383#1 24584383#2 -24584383#2"/>
    </vehicle>