<routes><vType id="car" accel="2.6" decel="4.5" sigma="0.5" length="5" minGap="2.5" maxSpeed="70" guiShape="passenger" /><vehicle id="veh0" type="car" depart="0.0"><route edges="24584377#4 24584377#5 24584377#6 24584377#7 24584377#8 24584377#9 447141152 570526053 447141150#0 447141150#1 447141149#0 447141149#1 447141149#2 1219699878#0 1219699878#1 1219699878#2 1219699880 24583330#0 24583330#1 24583330#2 24583330#3 24583330#4 24583330#5 -24584374#6 1122038572#0 1122038572#1 103176793#4 24583330#7 24583330#8 615556515#0 615556515#1 615556515#2 564223494#0 564223494#1 564223494#2 564223494#3 554665389#0 554665389#1 554665389#2 578543604 578543606 730111073#0 730111073#1 730111073#2 446922590#0 446922590#1 446922590#2 446922590#3 446922590#4 446922590#5 446922590#6 596346055#0 596346055#1 596346055#2 1252826818#0 1252826818#1 1252826818#2 289766562 289766561#3 289766561#0 289766565 -1312212167#0 -38699585#1 -38699585#0 265975963#2 265975963#3 -1306141818#1 -1306141818#0 -265975966#5 -265975966#4 -750482273#11 -1076782195#0" /></vehicle><vehicle id="veh1" type="car" depart="10.0"><route edges="577982260#6 577982260#7 24577118#0 24577118#1 24577118#2 24577118#3 24577118#4 24577118#5 24577118#6 24577118#7 24577118#8 24577118#9 24577118#10 1240749877 24583589 995793692#3 995793692#4 995793692#5 995793692#6 995793692#7 563975284#0 563975284#1 712992070 614072000 563679821#0 563679821#1 563679821#2 563679821#3 563679821#4 563679821#5 24577480#0 24577480#1 24577480#2 24577480#3 24577480#4 23133486#9 23133486#10 23133486#11 23133486#12 23133486#13 23133486#14 23133486#15 23133486#16 24577487#0 24577487#1 24577487#2 24577487#3 24577487#4 578543604 578543606 80414533#0 80414533#1 -154090267#3 -154090267#2 -154090267#1 -154090267#0 -38235041#6 -38235041#6" /></vehicle><vehicle id="veh2" type="car" depart="20.0"><route edges="773816586#0 773816586#1 773816586#2 615556519#9 615556519#10 -24584373#11 -24584373#10 -24584373#9 -24584373#8 -24584373#7 -24584373#6 -24584373#5 -24584373#4 -24584373#3 -24584373#2 -24584373#1 -24584373#0 80926759#4 686925959 -38235041#7 -686878276 293153163#0 293153163#0" /></vehicle><vehicle id="veh3" type="car" depart="30.0"><route edges="714986188#2 446922590#0 446922590#1 24577486#0 24577486#1 24577486#2 23133600#12 23133600#13 23133600#14 24577488#5 24577488#6 24577488#7 24583332#0 24583332#1 24583332#2 24583332#3 24583332#4 24583332#5 24583332#6 24583332#7 24583332#8 24583332#9 24583332#10 24583332#11 24583332#12 24583332#13 24583332#14 24583332#15 24583332#16 24583332#17 554665390 570526052 24583320 24584375#0 24584375#1 -24584383#0 -1354558617 -1354558617" /></vehicle><vehicle id="veh4" type="car" depart="40.0"><route edges="24583330#3 24583330#4 24583330#5 -24584374#6 1122038572#0 1122038572#1 103176793#4 24583330#7 24583330#8 615556515#0 615556515#1 615556515#2 564223494#0 564223494#1 564223494#2 564223494#3 554665389#0 554665389#1 554665389#2 578543604 578543606 730111073#0 730111073#1 730111073#2 446922590#0 446922590#1 446922590#2 446922590#3 446922590#4 446922590#5 446922590#6 596349216 572511732#0 572511732#1 572511732#2 572511732#3 572511732#4 24582917#0 24582917#1 24582917#2 24582917#3 1076510349#0 1076510349#1 1076510349#2 1153925787#1 1153925787#2 1153925787#3 1153925787#4 74851423#0 74851423#1 74851423#2 74851423#3 74851423#4 1121139429#0 1121139430#1 -700293875#2 1121139432#0 -1121139432#1" /></vehicle><vehicle id="veh5" type="car" depart="50.0"><route edges="319329101#7 319329101#8 319329101#9 319329101#10 319329101#11 80926759#4 80926759#5 80926759#6 80926759#7 578543606 730111073#0 730111073#1 730111073#2 446922590#0 446922590#1 446922590#2 446922590#3 446922590#4 446922590#5 446922590#6 596349216 572511732#0 572511732#1 572511732#2 572511732#3 572511732#4 24582917#0 24582917#1 24582917#2 24582917#3 1076510349#0 1076510349#1 1076510349#2 1153925787#1 1153925787#2 1153925787#3 1153925787#4 74851423#0 74851423#1 74851423#2 74851423#3 74851423#4 74851423#5 74851423#6 74851423#7 74851423#8 74851423#9 -291266018#1 1307182526 1121191979#2 142865883#1" /></vehicle><vehicle id="veh6" type="car" depart="60.0"><route edges="-1076782195#1 1076782194#1 1076782194#2 750482273#9 750482273#10 750482273#11 265975966#4 265975966#5 1306141818#0 1306141818#1 265975963#0 265975963#1 38699585#0 38699585#1 38699585#2 38699585#3 38699585#4 38699585#5 38699585#6 28103794#1 28103794#2 28103794#3 28103794#4 28103794#5 28103794#6 572511732#0 572511732#1 572511732#2 572511732#3 24577483#0 23133600#9 23133600#10 23133600#11 23133600#12 23133600#13 24577487#2 24577487#3 24577487#4 578543604 578543606 80414533#0 80414533#1 -154090267#3 -154090267#2 -154090267#1 -154090267#0 -686878276 293153161#0 -293153159#0" /></vehicle><vehicle id="veh7" type="car" depart="70.0"><route edges="24584385#2 -80926764#4 -80926764#3 695569947 758753881#1 758753882 590609994#0 590609994#1 572511730 447141148 572511731 447141147#0 24583334#0 24583334#1 24583334#2 24583334#3 24583334#4 24583334#5 24583337#3 24583337#4 24583337#5 24583337#6 24583337#7 24583339#0 24583339#1 24583339#2 24583339#3 24583339#4 24583339#5 24583339#6 447141132#4 24577096#0 24577096#0" /></vehicle><vehicle id="veh8" type="car" depart="80.0"><route edges="-343654534#2 -707566694 -707566695#0 707566696#5 707566696#6 164675827#3 164675827#4 164675827#5 164675827#6 164675827#7 80499778#6 562340247#0 562340247#1 562340247#2 562340247#3 562340247#4 562340247#5 562340245 23133709#0 23133709#1 23133709#2 23133709#3 23133709#4 23133709#5 562340241 562340248#0 562340248#1 564223496#0 564223496#1 24583332#0 24583332#1 24583332#2 24583332#3 24583332#4 24583332#5 24583332#6 24583332#7 24583332#8 24583332#9 24583332#9" /></vehicle><vehicle id="veh9" type="car" depart="90.0"><route edges="579781481#10 579781481#11 570616027 23133709#0 23133709#1 23133709#2 23133709#3 23133709#4 23133709#5 562340241 562340248#0 562340248#1 564223496#0 564223496#1 24583332#0 24583332#1 -1078118953 615556516 44263461#0 44263461#1 44263461#2 44263461#3 44263461#4 44263461#5 44263461#6 44263461#7 44263461#8 615556519#5 615556519#6 615556519#7 615556519#8 615556519#9 615556519#10 -24584373#11 -24584373#10 253307769#0 253307772 311994764#0 -1072914441" /></vehicle><vehicle id="veh10" type="car" depart="100.0"><route edges="446922591 760480736 562340247#0 562340247#1 562340247#2 562340247#3 562340247#4 562340247#5 562340243 570616026#0 570616026#1 570616026#2 570616026#3 570616026#4 570616026#5 570616026#6 570616026#7 570616026#8 570616026#9 570616026#10 563975285 563679836#0 563679836#1 563679836#2 563679836#3 563679836#4 563679836#5 563679836#6 563679836#7 563679836#8 563679836#9 563679836#10 563679836#11 563679836#12 563679836#13 563679836#14 563679836#15 1242128092#0 1242128092#1 1242128093 370672194#0 370672194#1 370672194#2 370672194#3 370672194#4 370672194#4" /></vehicle><vehicle id="veh11" type="car" depart="110.0"><route edges="80418094#0 80418094#1 80418094#2 38699585#4 38699585#5 38699585#6 28103794#1 28103794#2 28103794#3 28103794#4 28103794#5 28103794#6 572511732#0 572511732#1 572511732#2 572511732#3 572511732#4 572511732#5 572511732#6 572511732#7 572511732#8 446922591 760480736 562340247#0 562340247#1 562340247#2 562340247#3 562340247#4 562340247#5 562340243 570616026#0 570616026#1 570616026#2 570616026#3 570616026#4 570616026#5 570616026#6 570616026#7 570616026#8 570616026#9 570616026#10 563975285 563974733#0 563974733#1 995793692#0 995793692#1 24583586#1 995792407 995792406#0 995792406#1 995792406#2 995792406#3 -24577118#11 -24577118#10 -24577118#9 -24577118#8 -24577118#7 -24577118#6 -24577118#5 -24577118#4 -24577118#3 -24577118#2 -24577118#1 -24577118#0 -577982260#7 -577982260#6 -24583590#3 -24583590#3" /></vehicle><vehicle id="veh12" type="car" depart="120.0"><route edges="80926788#1 -169081335#4 -1184932071#2 -1184932071#1 -1184932071#0 -169081336#0 424007961#0 424007961#1 -1386106195#6 -1386106195#5 -1386106195#4 -1386106195#3 -1386106195#2 -1386106195#1 1072914443#0 1072914443#1 1072914443#2 -311994765#0 311994767 -24584373#2 -24584373#1 -24584373#0 -319329101#11 -319329101#10 -319329101#9 -319329101#8 -38235349#3 -38235349#2 -38235349#1 -123406196#1 300626290 83675250#1 -83675250#2" /></vehicle><vehicle id="veh13" type="car" depart="130.0"><route edges="1292286060#1 111695524#3 111695524#4 44277692#0 44277692#1 44277692#2 447141149#1 447141149#2 1219699878#0 1219699878#1 1219699878#2 1219699880 24583330#0 24583330#1 24583330#2 24583330#3 24583330#4 24583330#5 -24584374#6 1122038572#0 1122038572#1 103176793#4 24583330#7 24583330#8 615556515#0 615556515#1 615556515#2 564223494#0 564223494#1 564223494#2 564223494#3 554665389#0 554665389#1 554665389#2 578543604 578543606 80414533#0 80414533#1 -154090267#3 -154090267#2 -154090267#2" /></vehicle><vehicle id="veh14" type="car" depart="140.0"><route edges="24577361#0 24577361#1 24577361#2 -24583593#11 -24583593#10 -24583593#9 -24583593#8 -24583593#7 -24583593#6 -24583593#5 -24583593#4 -24583593#3 -24583593#2 -24583592#5 -24583592#4 -24583592#3 -24583592#2 -24583592#1 -24583592#0 563974735#2 563974735#3 563974735#4 563974735#5 563974735#6 563974735#7 563974735#8 563974735#9 563974735#10 563974733#0 563974733#1 995793692#0 995793692#1 995793692#2 995793692#3 995793692#4 995793692#5 995793692#6 995793692#7 563975284#0 563975284#1 563974730#0 563974730#1 563974730#2 563974730#3 563974730#4 563974730#5 579151950 1066619122#0 1066619122#1 24583487#0 24583487#1 24583487#2 24583487#3 24583487#4 24583487#5 24583487#6 24583487#7 24583487#8 24583487#9 24583487#10 24583487#11 24583489#13" /></vehicle><vehicle id="veh15" type="car" depart="150.0"><route edges="578543603#4 578543603#5 578543603#6 578543603#7 523568284#0 996679780#0 996679781#3 80499778#0 80499778#1 80499778#2 80499778#3 80499778#4 80499778#5 80499778#6 562340247#0 562340247#1 562340247#2 562340247#3 562340247#4 562340247#5 562340245 23133709#0 23133709#1 23133709#2 23133709#3 23133709#4 23133709#5 24577480#0 24577480#1 24577480#2 24577480#3 24577480#4 23133486#9 23133486#10 23133486#11 23133486#12 23133486#13 23133486#14 23133486#15 23133486#16 24577487#0 24577487#1 24577487#2 24577487#3 24577487#4 125453679#0 125453679#1 125453679#2 125453679#3 125453679#4 125453679#5 125453679#6 125453679#7 31058508#0 31058508#1 31058508#2 31058508#3 -423618444#2 -423618444#1 -423618444#0 423618440#0" /></vehicle><vehicle id="veh16" type="car" depart="160.0"><route edges="23133600#1 23133600#2 23133600#3 1375201075 760480736 562340247#0 562340247#1 562340247#2 562340247#3 562340247#4 562340247#5 562340245 23133709#0 23133709#1 23133709#2 23133709#3 23133709#4 23133709#5 562340241 570616028#0 570616028#1 1278775921#0 1278775921#1 1278775920 24577478#0 24577478#1 24577478#2 996679779#0 996679779#0" /></vehicle><vehicle id="veh17" type="car" depart="170.0"><route edges="1072914437#0 1386106195#6 -424007961#1 44263458#6 -1386086512#1 -1386086512#0 -311994764#3 -311994764#2 -311994764#1 -311994764#0 -253307772 -253307769#0 24584373#10 24584373#11 1285005491 44263457#0 44263457#1 44263457#2 44263457#3 44263457#4 44263457#5 44263457#6 44263457#7 44263457#8 -44263461#6 -44263461#5 -44263461#4 -44263461#3 -44263461#2 -44263461#1 -44263461#0 -615556516 1078118953 24583332#2 1074774612#0 1074774612#1 -612734123#1 -612734123#0 -612734124#0 -24583488#1 -24583488#0 997761546#1 570616029#0 1384226015 570616028#1 1278775921#0 -103176785#2 -103176785#1 686657381 -423553702#0 -235103610#2 -442157836 74851428#3 74851428#4 74851428#5 563791811#0 563791811#1 563791811#2 563791811#3 563791811#4 24583586#0 24583586#1 995792407 995792406#0 995792406#1 995792406#2 995792406#3 -24577118#11 -24577118#10 -24577118#9 -24577118#8 -24577118#7 -24577118#6 -24577118#5 -24577118#4 -24577118#3 24577118#2" /></vehicle><vehicle id="veh18" type="car" depart="180.0"><route edges="611866602#4 1153925787#4 291266019#0 291266019#1 1312753970#0 1312753970#1 1312753970#2 1312753970#3 996679780#0 996679780#1 996679780#2 563974735#0 563974735#1 24583592#0 24583592#1 24583592#2 24583592#3 24583592#4 24583592#4" /></vehicle><vehicle id="veh19" type="car" depart="190.0"><route edges="686771927#1 750482273#5 1076782196#0 -1076782193#1 154356520#4 154356520#5 686920282 665921720 665921719 665921717 1312753970#0 1312753970#1 1312753970#2 1312753970#3 996679780#0 996679780#1 996679780#2 563974735#0 563974735#1 563974735#2 563974735#3 563974735#4 563974735#5 563974735#6 563974735#7 563974735#8 563974735#9 563974735#10 563974733#0 563974733#1 995793692#0 995793692#1 995793692#2 995793692#3 995793692#4 995793692#5 995793692#6 995793692#7 563975284#0 563975284#1 563974730#0 563974730#1 563974730#2 563974730#3 563974730#4 1122226240 996679779#1 996679779#2 996679779#3 996679779#4 996679779#5 996679779#6 996679779#7 447141147#0 447141147#1 447141147#2 24583324#0 24583324#1 590609994#0 590609994#1 572511730 447141148 24583327#0 24583327#0" /></vehicle><vehicle id="veh20" type="car" depart="200.0"><route edges="370672197#6 24563436#1 24563436#2 1306148229#0 1306148229#1 1306148229#2 1306148229#3 24577361#1 24577361#2 -24583593#11 -24583593#10 -24583593#9 -24583593#8 -24583593#7 -24583593#6 -24583593#5 -24583593#4 -24583593#3 -24583593#2 -24583592#5 -24583592#4 -24583592#3 -24583592#2 -24583592#1 -24583592#0 563974735#2 563974735#3 563974735#4 563974735#5 563974735#6 563974735#7 563974735#8 563974735#9 563974735#10 563974733#0 563974733#1 995793692#0 995793692#1 995793692#2 995793692#3 995793692#4 995793692#5 995793692#6 995793692#7 563975284#0 563975284#1 563974730#0 563974730#1 563974730#2 563974730#3 563974730#4 563974730#5 579151950 1066619122#0 1066619122#1 24583487#0 24583487#1 24583487#2 24583487#3 24583487#4 24583487#5 24583487#6 24583487#7 24583487#8 24583487#9 24583487#10 24583487#11 -24583489#13 -24583489#12 -24583489#11 -24583489#10 -24583489#9 -24583489#8 -24583489#7 -1122220358#0" /></vehicle><vehicle id="veh21" type="car" depart="210.0"><route edges="-370672197#4 -370672197#3 -370672197#2 -370672197#1 -370672197#0 712992080#1 712992080#2 712992080#3 712992080#4 995113419 570859666#0 570859666#1 570859666#2 446922583#0 446922583#1 722082942 447141131#0 447141131#1 447141131#2 446922589 24583333#0 24583333#1 74851424#0 74851424#1 -1277942000#8 -1277942000#7 -1277942000#6 -1277942000#5 -1277942000#4 -1277942000#3 -1277942000#2 -1277942000#1 -142865883#2 -1121191979#2 -1307182526 -291266017#9 -291266017#8 -291266017#7 -291266017#6 -700293875#0" /></vehicle><vehicle id="veh22" type="car" depart="220.0"><route edges="686847276#0 1253472523#0 1320950715 31058510#1 31058510#2 492439727#0 492439727#1 492439727#2 492439726#0 492439726#1 80926759#0 80926759#1 80926759#2 80926759#3 80926759#4 80926759#5 80926759#6 80926759#7 578543606 730111073#0 730111073#1 730111073#2 446922590#0 446922590#1 24577486#0 24577486#1 24577486#2 24577486#3 24577486#4 23133486#24 23133486#25 23133486#26 23133486#0 23133486#1 23133486#2 23133486#3 23133486#4 23133486#5 23133486#6 23133486#7 23133486#8 23133486#9 -391534135#6 -391534135#5 -391534135#5" /></vehicle><vehicle id="veh23" type="car" depart="230.0"><route edges="-1386084973 686792710#0 686792710#1 1145143266#1 1145143266#2 1145143266#3 1145143266#4 1145143266#5 1145143266#6 1145143266#7 1145143266#8 1145143266#9 1145143266#10 1145143266#11 1219699881#0 1219699881#1 1219699881#2 1219699881#3 1219699881#4 -1219699879 24583332#13 24583332#14 24583332#15 24583332#16 24583332#17 554665390 570526052 24583320 24584375#0 24584375#1 24584375#2 24584375#3 24584375#4 24584375#5 24584375#6 24584375#7 -24584392#3 -24584392#2 -686696454#2 -686696454#2" /></vehicle><vehicle id="veh24" type="car" depart="240.0"><route edges="24584375#10 447141153#0 447141153#1 24584389#0 24584389#1 24584389#2 24584389#3 782774053 722082950 570413589#0 570413589#1 570413589#2 447141139 447141140#0 447141140#1 447141140#2 24584377#0 24584377#1 24584377#2 24584377#3 24584377#4 24584377#5 24584377#6 24584377#7 24584377#8 24584377#9 447141152 570526053 447141150#0 111695525#0 111695525#1 111695525#2 111695525#3 44277690#0 44277690#1 779077038#0 779077038#1 779077038#2 779077038#3 779077038#4 779077038#5 779077038#6 700305758#1 -1072933745 -700305759#0 31056642#3 590609996 779129470 80926788#0 80926788#1 -169081335#4 -1184932071#2 -1184932071#1 -1184932071#0 -169081336#0 80926788#4 80926788#5 80926788#6 80926788#7 463699077#0 463699077#1 1331524579#0 1331524579#1 -1343796255 1067100260#1" /></vehicle><vehicle id="veh25" type="car" depart="250.0"><route edges="1000448884#3 1000448884#4 164675827#6 164675827#7 80499778#6 562340247#0 562340247#1 562340247#2 562340247#3 562340247#4 562340247#5 562340245 23133709#0 23133709#1 23133709#2 23133709#3 23133709#4 23133709#5 24577480#0 24577480#1 24577480#2 24577480#3 24577480#4 23133486#9 23133486#10 23133486#11 23133486#12 23133486#13 23133486#14 23133486#15 23133486#16 24577487#0 24577487#1 24577487#2 24577487#3 24577487#4 578543604 578543606 80414533#0 80414533#1 -154090267#3 -154090267#2 -154090267#1 -154090267#0 -38235041#6 -38235041#5 -38235041#4 -38235041#3 -38235041#2 -360250361 38235351#2 -360250362#0" /></vehicle><vehicle id="veh26" type="car" depart="260.0"><route edges="993539158#1 142865883#1 -1121191979#2 -1307182526 -291266017#9 -291266017#8 -291266017#7 -291266017#6 -291266017#5 -291266017#4 -291266017#3 -291266017#2 -291266017#1 -291266017#0 291266019#1 1312753970#0 1312753970#1 1312753970#2 1312753970#3 996679780#0 996679781#3 665921722 1312753971#0 1312753971#1 553596950 74851427 164782722 1306141818#0 1306141818#1 265975963#0 265975963#1 38699585#0 -1080270727 -80418131#3 -80418131#2 -80418131#1 993539965#0 993539965#1 80418094#0" /></vehicle><vehicle id="veh27" type="car" depart="270.0"><route edges="24584377#8 24584377#9 447141152 570526053 447141150#0 447141150#1 447141149#0 447141149#1 447141149#2 665150702 554665390 24583321#0 24583321#1 24583321#2 997761553 997761552#0 997761552#1 -24583487#13 -24583487#12 -24583487#11 -24583487#10 -24583487#9 -24583487#8 -24583487#7 -24583487#6 -24583487#5 -24583487#4 -24583487#3 -24583487#2 -24583487#1 -24583487#0 1066619121#0 1066619121#1 997761547 -1066619123 74851428#0 74851428#1 24583495#11" /></vehicle><vehicle id="veh28" type="car" depart="280.0"><route edges="-24583593#6 -24583593#5 -24583593#4 -24583593#3 -24583593#2 -24583592#5 -24583592#4 -24583592#3 -24583592#2 -24583592#1 -24583592#0 563974735#2 563974735#3 563974735#4 563974735#5 563974735#6 563974735#7 563974735#8 563974735#9 563974735#10 563974733#0 579781481#0 579781481#1 579781481#2 579781481#3 579781481#4 579781481#5 579781481#6 579781481#7 579781481#8 579781481#9 579781481#10 579781481#11 570616027 23133709#0 23133709#1 23133709#2 23133709#3 23133709#4 23133709#5 562340241 562340248#0 562340248#1 564223496#0 564223496#1 24583332#0 24583332#1 -1078118953 615556516 44263461#0 44263461#1 44263461#2 44263461#3 44263461#4 44263461#5 44263461#6 -44263457#8 -44263457#7 -44263457#6 -44263457#5 -44263457#4 -44263457#3 -44263457#2 -44263457#1 -44263457#0 -1145143266#11 -1145143266#10 -1145143266#9 -1145143266#8 -1145143266#7 -1145143266#6 -1145143266#5 -1145143266#4 -1145143266#3 -1145143266#2 -1145143266#1 -686792710#1 -686792710#0 1386084973 1285005493#10 31056642#0 31056642#1 31056642#2 31056642#3 590609996 779129470 80926788#0 80926788#1 -169081335#4 -1184932071#2 -1184932071#1 -1184932071#0 169081336#1 169081336#2 169081336#3 -423618433#3 423618433#2" /></vehicle><vehicle id="veh29" type="car" depart="290.0"><route edges="-24583584#6 116046167#2 116046167#3 116046167#4 116046167#5 116046167#6 116046167#7 116046167#8 116046167#9 579781481#0 579781481#1 579781481#2 579781481#3 579781481#4 579781481#5 579781481#6 579781481#7 579781481#8 579781481#9 579781481#10 579781481#11 570616027 23133709#0 23133709#1 23133709#2 23133709#3 23133709#4 23133709#5 562340241 562340248#0 562340248#1 564223496#0 564223496#1 24583332#0 24583332#1 -1078118953 615556516 44263461#0 -686682898#3 -686682898#2 -686682898#1 -686682898#0 -103176793#1 1074774613 1074774613" /></vehicle><vehicle id="veh30" type="car" depart="300.0"><route edges="-998790356#8 -998790356#7 -998790356#6 -998790356#5 -998790356#4 -998790356#3 -998790356#2 -998790356#1 -998790356#0 998790360 23134734#0 23134734#1 23134734#2 23134734#3 710645770 447141133#0 447141133#1 722082944 447141132#0 447141132#1 370545701#0 370545701#1 370545701#2 24583337#9 24583337#10 24583337#11 24583337#0 24583337#1 24583335#0 24583335#1 24583335#2 663858576 663858574 24583335#4 24583335#5 447141147#2 24583324#0 24583324#1 590609994#0 590609994#1 717907807#0 -80926764#6 -80926764#5 -80926764#4 -80926764#3 -80926764#2 -80926764#1 -80926764#0 -24584383#4 611866592#0 611866592#1 -80926782 -24584392#4 -24584392#3 -24584392#2 -686696454#2 24584378#4" /></vehicle><vehicle id="veh31" type="car" depart="310.0"><route edges="24563436#2 1306148229#0 1306148229#1 1306148229#2 1306148229#3 24577361#1 24577361#2 -24583593#11 -24583593#10 -24583593#9 -24583593#8 -24583593#7 -24583593#6 -24583593#5 -24583593#4 -24583593#3 -24583593#2 -24583592#5 -24583592#4 -24583592#3 -24583592#2 -24583592#1 -24583592#0 563974735#2 563974735#3 563974735#4 563974735#5 563974735#6 563974735#7 563974735#8 563974735#9 563974735#10 563974733#0 563974733#1 995793692#0 995793692#1 995793692#2 995793692#3 995793692#4 995793692#5 995793692#6 995793692#7 563975284#0 563975284#1 712992070 614072000 563679821#0 563679821#1 563679821#2 563679821#2" /></vehicle><vehicle id="veh32" type="car" depart="320.0"><route edges="-370765175#1 -370765175#0 -142865883#7 -142865883#6 -142865883#5 -142865883#4 -142865883#3 1277942000#1 1277942000#2 1277942000#3 1277942000#4 1277942000#5 1277942000#6 1277942000#7 1277942000#8 1277941999#0 1277941999#1 24583333#4 24583333#5 24583333#6 446922584#0 446922584#1 446922586#0 446922586#1 995113415 570859666#0 570859666#1 570859666#2 446922583#0 446922583#1 722082942 447141131#0 447141131#1 720546573#0 720546573#1 720546573#2 720546573#3 720546573#4 720546573#5 720546573#6 -1121142413#4 -1121142413#3 -1121142415 -1121142415" /></vehicle><vehicle id="veh33" type="car" depart="330.0"><route edges="1076782191 -717454375#0 -717454379#1 -717454379#0 -717454380#0 38699591#9 38699591#10 38699591#11 686914248 28103794#5 28103794#6 572511732#0 572511732#1 572511732#2 572511732#3 24577483#0 24577483#1 24577483#2 23133486#1 23133486#2 23133486#3 23133486#4 23133486#5 23133486#6 23133486#7 23133486#8 23133486#9 23133486#10 23133486#11 24577488#0 24577488#1 24577488#2 24577488#3 24577488#4 24577488#5 24577488#6 24577488#7 24583332#0 24583332#1 24583332#2 24583332#3 -612734121#2 -612734121#1 -612734121#0 24583488#6 -612734122" /></vehicle><vehicle id="veh34" type="car" depart="340.0"><route edges="-293153159#3 993538736#0 993538736#1 -293153163#4 -293153163#3 -293153163#2 -293153163#1 -293153163#0 686878276 38235041#7 686925958 80926759#6 80926759#7 578543606 730111073#0 730111073#1 730111073#2 446922590#0 446922590#1 446922590#2 446922590#3 446922590#4 446922590#5 446922590#6 596346055#0 596346055#1 596346055#2 1252826818#0 1252826818#1 1252826818#2 289766562 289766561#3 289766561#0 289766565 -1312212167#0 -38699585#1 -1080270727 -80418131#3 80418131#2" /></vehicle><vehicle id="veh35" type="car" depart="350.0"><route edges="-74851423#6 -700293875#0 -291266017#5 -291266017#4 -291266017#3 -291266017#2 -291266017#1 -291266017#0 291266019#1 1312753970#0 1312753970#1 1312753970#2 1312753970#3 996679780#0 996679781#3 665921722 1312753971#0 1312753971#1 553596950 74851427 164782722 -265975966#5 1312753969#0 1076782194#0 1076782194#1 1076782194#2 -750482273#8 -750482273#7 -750482273#6 -750482273#5 -750482273#4 -750482273#3 -750482273#2 -750482273#1 -750482273#1" /></vehicle><vehicle id="veh36" type="car" depart="360.0"><route edges="253307767#2 253307767#3 253307767#4 253307767#5 253307767#6 253307767#7 253307767#8 579781481#11 570616027 23133709#0 23133709#1 23133709#2 23133709#3 23133709#4 23133709#5 24577480#0 24577480#1 24577480#2 23133600#0 23133600#1 23133600#2 23133600#3 1375201075 760480737 578543603#1 578543603#2 -24582918#3 -24582918#2 -24582918#1 -24582918#0 -24582921#9 -1374634869#2 -423563749#3 -423563749#2 -423563749#1 -423563749#0 -24582919#4 1119548738#0 1119548738#1 1119548738#1" /></vehicle><vehicle id="veh37" type="car" depart="370.0"><route edges="-74851423#7 -74851423#6 -74851423#5 -74851423#4 -74851423#3 -74851423#2 -74851423#1 -74851423#0 -1153925787#4 -1153925787#3 -1153925787#2 -1153925787#1 -1076510349#2 -1076510349#1 -1076510349#0 1374634869#0 1374634869#1 1374634869#2 24582921#9 24582921#10 24582921#11 572511732#8 446922591 760480736 562340247#0 562340247#1 562340247#2 562340247#3 562340247#4 562340247#5 562340245 23133709#0 23133709#1 23133709#2 23133709#3 23133709#4 23133709#5 24577480#0 24577480#1 24577480#2 24577480#3 24577480#4 23133486#9 23133486#10 23133486#11 23133486#12 23133486#13 23133486#14 23133486#15 23133486#16 24577487#0 24577487#1 24577487#2 24577487#3 24577487#4 578543604 578543606 80414533#0 80414533#1 -154090267#3 -154090267#2 -154090267#1 -154090267#0 -686878276 293153163#0 293153145#0 293153145#1 293153141#1 293153156#0 -993538737 -38235349#2 -123406184#1 123406184#0" /></vehicle><vehicle id="veh38" type="car" depart="380.0"><route edges="553590482#1 553590482#2 -291266018#2 -74851423#9 -74851423#8 -74851423#7 -74851423#6 -74851423#5 -74851423#4 -74851423#3 -74851423#2 -74851423#1 -74851423#0 -1153925787#4 -1153925787#3 -1153925787#2 -1153925787#1 -1076510349#2 -1076510349#1 -1076510349#0 1374634869#0 1374634869#1 1374634869#2 24582921#9 24582921#10 24582921#11 572511732#8 446922591 760480736 562340247#0 562340247#1 562340247#2 562340247#3 562340247#4 562340247#5 562340245 23133709#0 23133709#1 23133709#2 23133709#3 23133709#4 23133709#5 562340241 562340248#0 562340248#1 564223496#0 564223496#1 24583332#0 24583332#1 -1078118953 615556516 44263461#0 44263461#1 44263461#2 44263461#3 44263461#4 44263461#5 -44263461#6" /></vehicle><vehicle id="veh39" type="car" depart="390.0"><route edges="24577361#9 24577361#10 116046166#1 116046166#2 24577121#1 24577121#2 24577121#3 24577121#4 24577121#5 24577121#6 24577121#7 24577121#8 24577121#9 579781482#0 579781482#1 24583590#0 24583590#1 24583590#2 24583590#3 -577982260#5 -577982260#4 -577982260#3 -577982260#2 -577982260#2" /></vehicle><vehicle id="veh40" type="car" depart="400.0"><route edges="24583330#2 24583330#3 24583330#4 24583330#5 -24584374#6 1122038572#0 1122038572#1 103176793#4 24583330#7 24583330#8 615556515#0 615556515#1 615556515#2 564223494#0 564223494#1 564223494#2 564223494#3 554665389#0 554665389#1 554665389#2 578543604 578543606 730111073#0 730111073#1 730111073#2 446922590#0 446922590#1 446922590#2 446922590#3 446922590#4 446922590#5 446922590#6 596346055#0 596346055#1 596346055#2 1252826818#0 1252826818#1 1252826818#2 1252826818#3 1252826818#4 1252826818#5 -1252826817 38699591#8 717454380#0 717454379#0 717454379#1 717454379#2 717454379#3 717454379#4 717454379#4" /></vehicle><vehicle id="veh41" type="car" depart="410.0"><route edges="-998790358#3 -998790358#2 -998790358#1 -998790358#0 998790353#0 998790353#1 998790353#2 579781482#3 116046167#0 116046167#1 116046167#2 116046167#3 116046167#4 116046167#5 116046167#6 116046167#7 116046167#8 116046167#9 579781481#0 563791811#8 563679820#0 563679820#1 563679820#2 563679820#3 563679820#4 563679820#5 563679820#6 563679820#7 563679820#8 563679820#9 563679820#10 563679820#11 563679820#12 563679820#13 563679820#14 563679820#15 563679820#16 563679820#17 665921722 1312753971#0 1312753971#1 553596950 74851427 164782722 1306141818#0 1306141818#1 265975963#0 -38699586#1 -38699586#0 154356516#0 154356516#0" /></vehicle><vehicle id="veh42" type="car" depart="420.0"><route edges="1277942000#6 1277942000#7 1277942000#8 1277941999#0 1277941999#1 24583333#4 24583333#5 24583333#6 446922584#0 446922584#1 446922586#0 446922586#1 995113415 570859666#0 570859666#1 570859666#2 446922583#0 446922583#1 712992079#0 712992079#1 1202691839#0 1202691839#1 -998790358#19 -998790358#18 -998790358#17 -998790358#16 -998790358#15 -998790358#14 -998790358#13 -998790358#12 -998790358#11 -998790358#10 -998790358#9 -998790358#8 -998790358#7 -998790358#6 -998790358#5 -998790358#4 -998790358#3 -998790358#2 -998790358#1 -998790358#0 998790353#0 998790353#1 998790353#2 998790353#3 998790353#4 -998790354#7 -998790354#6 -998790354#5 -998790354#4 -998790354#3 -998790354#2 -998790354#1 -998790354#0 998790357#0 998790357#1 -998790356#8 -998790356#7 -998790356#6 -998790356#5 -998790356#4 -998790356#3 -998790356#2 -998790356#1 -998790356#0 998790360 23134734#0 23134734#1 23134734#2 23134734#3 710645770 447141133#0 447141133#1 722082944 447141132#0 447141132#1 370545701#0 370545701#1 370545701#2 24583337#9 24583337#10 -1122228221 -1122228221" /></vehicle><vehicle id="veh43" type="car" depart="430.0"><route edges="154356520#2 750482273#7 750482273#8 750482273#9 750482273#10 750482273#11 265975966#4 265975966#5 1306141818#0 1306141818#1 265975963#0 265975963#1 38699585#0 38699585#1 38699585#2 38699585#3 38699585#4 38699585#5 38699585#6 28103794#1 28103794#2 28103794#3 28103794#4 28103794#5 28103794#6 572511732#0 572511732#1 572511732#2 572511732#3 24577483#0 23133600#9 23133600#10 23133600#11 23133600#12 23133600#13 24577487#2 24577487#3 24577487#4 125453679#0 125453679#1 125453679#2 24584373#0" /></vehicle><vehicle id="veh44" type="car" depart="440.0"><route edges="563974735#10 563974733#0 563974733#1 995793692#0 995793692#1 995793692#2 995793692#3 995793692#4 995793692#5 995793692#6 995793692#7 563975284#0 563975284#1 563974730#0 563974730#1 563974730#2 -24583491#3 -24583491#2 -24583491#1 -24583491#0 1374632732 24583337#7 24583337#8 24583337#9 24583768#0 24583768#1 24583768#2 1122230049#0 1122230049#1 1122230049#1" /></vehicle><vehicle id="veh45" type="car" depart="450.0"><route edges="-80418095#0 -38699587#0 265975963#3 -1306141818#1 -1306141818#0 -265975966#5 1312753969#0 1312753969#1 665921720 665921719 665921717 1312753970#0 611866603#0 611866603#1 611866603#2 523568284#3 -1123316542 997761541#2 997761541