<routes><vType id="car" accel="2.6" decel="4.5" sigma="0.5" length="5" minGap="2.5" maxSpeed="70" guiShape="passenger" /><vehicle id="veh0" type="car" depart="0.0"><route edges="-291877127 -1203087601 1246774348#1 -44716380#8 -44716380#7 1185227775 -292027014#1 1185227776 164802176#0 164802176#1 164802159#1 292027344 -292027022#1 686616066 46108373#11 46108373#12 46108373#13 46108373#14 1136644106#1 -235103461#1 -1239051719 292025709 111288196#4 111218035#1 -1122281742" /></vehicle><vehicle id="veh1" type="car" depart="10.0"><route edges="-292025840#1 -292025840#0 111218029#10 111218029#11 111218029#13 31059207#5 31059207#6 605698328#0 605698328#1 605698328#2 292025084#0 292025084#1 292025084#2 -292025083#1 -292025083#0 -235103533#3 -292024872#4 -292024872#3 292024875#0 -292024876#3 -292024876#2 292024880#0 -292024880#1" /></vehicle><vehicle id="veh2" type="car" depart="20.0"><route edges="292027015#1 292027015#2 1184582476#1 -292027010#3 292027012#0 292027012#1 1080439109 -292023848#0 1203088401#6 605695081#1 605695081#2 605695081#3 605695081#5 -1211234345 -292024872#6 292024872#5" /></vehicle><vehicle id="veh3" type="car" depart="30.0"><route edges="605695084#3 605695084#4 605695084#5 44716380#1 44716380#2 44716380#3 44716380#4 44716380#5 44716380#7 44716380#8 291877045 1203088403 292023765#0 292023765#1 -1116169317 -292023848#0 1203088401#6 605695081#1 292025078#0 292025078#1 292025078#2 292025078#3 292025078#4 -1246781006#0" /></vehicle><vehicle id="veh4" type="car" depart="40.0"><route edges="776771535#2 46108379#1 1307402760 46108376 -1184126822#1 -1184126822#1" /></vehicle><vehicle id="veh5" type="car" depart="50.0"><route edges="-1120528080 111218029#6 111218029#7 111218029#9 111218029#10 111218035#0 -111288196#4 -292025709 -292024648#4 -1239058047 -292025708 1136644106#0 -46108373#14 -46108373#13 292024662#0 292024662#1 292024662#2 292024662#3 -292024662#4" /></vehicle><vehicle id="veh6" type="car" depart="60.0"><route edges="292023824 -44716380#11 -44716380#10 -44716380#8 -44716380#7 -44716380#5 -291878516#1 -291878516#0 -291878514#0 292027021#3 -1185237194#3 -1185237194#2 1306331919 1306331919" /></vehicle><vehicle id="veh7" type="car" depart="70.0"><route edges="-292024706#1 -292024706#0 46108373#7 46108373#8 46108373#9 -164802159#3 -164802159#2 -164802159#1 292027345 292027022#3 292027015#0 292027015#1 292027015#2 1184582476#1 -292027010#3 292027012#0 292027012#1 1080439109 -292023848#0 1203088401#6 605695081#1 605695081#2 605695081#3 997648749#2 997648749#3 189304970#0 189304970#1 189304970#2 189304970#3 189304970#3" /></vehicle><vehicle id="veh8" type="car" depart="80.0"><route edges="423755579#6 28616709#0 605695084#1 605695084#2 -1185246530#0 -691603721 164802174#3 164802174#4 164802174#5 -164802167#7 -164802167#6 -164802167#5 1185258351 -1080512081#1" /></vehicle><vehicle id="veh9" type="car" depart="90.0"><route edges="423755579#0-AddedOffRampEdge 423755579#1 605695084#1 605695084#2 605695084#3 605695084#4 605695084#5 44716380#1 44716380#2 44716380#3 44716380#4 44716380#5 44716380#7 44716380#8 291877045 1203088403 292023765#0 292023765#1 -1116169317 -292023848#0 1203088401#6 605695081#1 292025078#0 292025078#1 292025078#2 292025078#2" /></vehicle><vehicle id="veh10" type="car" depart="100.0"><route edges="-44680205#10 -44680205#9 -44680205#8 -44680205#7 -44680205#5 -44680205#4 -44680205#3 -44680205#2 -44680205#1 997648749#5 44680203#0 44680203#2 44680203#3 44680203#4 44680203#5 44680203#6 44680203#7 44680203#8 44680203#9 44680203#11 44680203#12 -44680204#1 1203088401#3 -1185231634 -292023842#1 -292023842#0 -292023781#5 1185231635 1185231636 -292023765#2 -292023765#1 -1192927298 -292023764#4 -291877127 -1203087601 1246774348#1 -44716380#8 -44716380#7 -44716380#5 -291878516#1 -291878516#0 -291878514#0 292023488#0 292023488#1 -291877903#1" /></vehicle><vehicle id="veh11" type="car" depart="110.0"><route edges="686651418#0 -423755471#2 686636881#1 43540177#0 43540177#1 682964524 605696840#0 605696840#1 605696840#2 605696840#3 605696840#4 605696840#5 605696840#6 1203038225#0 1203038225#1 1203038225#2 46108373#1 46108373#2 -46108373#3" /></vehicle><vehicle id="veh12" type="car" depart="120.0"><route edges="-1246778611 -292024903 -292024876#0 -292024873#0 -292024872#1 -292024872#0 -292024871#0 -292025083#3 1211234344 1246779610 292025545 292025546 -292027340#1 605698329#3 1185227774 292027023 1185227773 1185227772 686633494#0 686633494#1 686633494#2 46108373#12 292024662#0 292024662#1 292024662#2 292024662#3 292024662#4 292024662#5 -292024663#1 -292024661#0 46108373#2 46108373#3 -46108380#3 -46108380#2 -46108380#1 -46108380#0 -46108378#2 1383933629 -1307402759" /></vehicle><vehicle id="veh13" type="car" depart="130.0"><route edges="-46108373#8 -46108373#7 -46108373#6 -46108373#5 1119782847 -1185237194#2 -1185237194#1 -1185237194#0 -291877904#0 -994832893#1 -994832893#0 -776771535#0 -164802157#0 292027391#1 292027391#2 292027392 -292027394#2 -292027394#1 -292027394#0 -292027393#1 -686678114#2 -686678114#1 -686678114#0 686678115#3 605696842#1 46108375#4 46108375#5 605695087#14 28616709#2 28616709#3 28616709#4 28616709#4" /></vehicle><vehicle id="veh14" type="car" depart="140.0"><route edges="423755579#1 605695084#1 -46108375#4 -605696842#1 -686678115#3 686678114#0 686678114#1 686678114#2 292027393#1 292027394#0 292027394#1 292027394#2 -292027392 -292027391#2 -292027391#1 164802157#0 776771535#0 994832893#0 994832893#1 291877904#0 1185237194#0 1185237194#1 1185237194#2 1185237194#3 164802170#0 164802170#1 292027345 292027022#3 292027015#0 292027015#1 292027015#2 1184582476#1 292027010#4 292027010#4" /></vehicle><vehicle id="veh15" type="car" depart="150.0"><route edges="1246774352 292023764#0 -292023821#0 291868047#0 291868047#1 291868047#2 1185231631#0 1185231631#1 1185231632 -44716380#10 -44716380#8 -44716380#7 -44716380#5 -291878516#1 -291878516#0 -291878514#0 292023488#0 292023488#1 291877903#1 291877904#5 1306326480 317580221#2 317580220 -164802157#1 -164802157#0 -1185237199 -292027390#2 -292027390#1 -292027390#0 -1185237198 46108379#4 46108379#5 -36326989#2 -36326989#1 -36326989#0 605696840#3 605696840#4 773571759 773571761#1" /></vehicle><vehicle id="veh16" type="car" depart="160.0"><route edges="-44680205#5 -44680205#4 -44680205#3 -44680205#2 -44680205#1 997648749#5 44680203#0 44680203#2 44680203#3 44680203#4 44680203#5 44680203#6 44680203#7 44680203#8 44680203#9 44680203#11 44680203#12 -44680204#1 1203088401#3 -1185231634 -292023842#1 -292023842#0 -292023781#5 1185231635 1185231636 -292023765#2 -292023765#1 -1192927298 -292023764#4 -291877127 -1203087601 1246774348#1 -44716380#8 -44716380#7 -44716380#5 -291878516#1 -291878516#0 -291878514#0 292023488#0 292023488#1 291877903#1 -291877904#3 291877904#2" /></vehicle><vehicle id="veh17" type="car" depart="170.0"><route edges="-46108379#8 -686646774#2 -686646774#1 -686646774#0 -292027391#6 -292027391#5 -292027391#4 -292027391#3 -292027391#2 -292027391#1 164802157#0 164802157#1 -317580220 -317580221#2 -1306326480 164802167#0 164802167#1 164802167#2 164802167#4 164802167#5 164802167#6 164802167#7 164802174#6 164802174#6" /></vehicle><vehicle id="veh18" type="car" depart="180.0"><route edges="292024872#6 1211234345 33050221#3 997648749#2 997648749#3 997648749#4 997648749#5 44680203#0 44680203#2 44680203#3 44680203#4 44680203#5 44680203#6 44680203#7 44680203#8 44680203#9 44680203#11 44680203#12 -44680204#1 605695087#1 605695087#2 1246774346 292023781#0 1246774351 292023764#0 -292023821#0 291868047#0 291868047#1 291868047#2 1185231631#0 1185231631#1 -1185231632" /></vehicle><vehicle id="veh19" type="car" depart="190.0"><route edges="292024872#6 1211234345 33050221#3 33050221#5 605698329#1 -994830064#3 -1080439108 -292023915#1 -292023915#0 -1080317752 -292027017 -292027015#0 -292027022#3 -292027345 -164802170#1 -164802170#0 -1185237194#3 -1185237194#2 -1185237194#1 -1185237194#0 -291877904#0 -994832893#1 -994832893#0 -776771535#0 -164802157#0 292027391#1 292027391#2 292027391#3 292027391#4 -292027393#2 292027394#0 -292027394#1" /></vehicle><vehicle id="veh20" type="car" depart="200.0"><route edges="1239030821#1 686638462#3 686638462#4 1239031489 686638459 605696840#2 605696840#3 605696840#4 605696840#5 605696840#6 1203038225#0 1203038225#1 1203038225#2 1203038225#3 1136644106#0 1136644106#1 1136644106#2 605698328#0 605698328#1 605698328#2 605698328#3 605698328#4 292025077#0 -292025078#2" /></vehicle><vehicle id="veh21" type="car" depart="210.0"><route edges="-1306324405 -292027391#1 164802157#0 776771535#0 994832893#0 994832893#1 291877904#0 1185237194#0 1185237194#1 1185237194#2 1185237194#3 164802170#0 164802170#1 164802159#1 -292027344" /></vehicle><vehicle id="veh22" type="car" depart="220.0"><route edges="292023622 1246774719 292023488#1 291877903#1 291877904#5 1306326480 317580221#2 317580220 -164802157#1 -164802157#0 292027391#1 292027391#2 292027392 -292027394#2 -292027394#1 -292027394#0 -292027393#1 -686678114#2 -686678114#1 -686678114#0 686678115#3 605696842#1 -46108375#3 605695090 423755579#8 567831194#0 1363977042#1 -682844000#0 -682844000#0" /></vehicle><vehicle id="veh23" type="car" depart="230.0"><route edges="-46108379#10 -46108379#9 -46108379#8 -46108379#7 -46108379#5 -46108379#4 -46108379#3 -46108379#2 -46108379#1 -46108379#0 46108380#0 46108380#1 46108380#2 46108380#3 -46108373#3 -46108373#2 292024661#0 292024663#1 -292024662#5 -292024662#4 -292024662#3 -292024662#2 -292024662#1 -292024662#0 46108373#13 46108373#14 1136644106#1 1136644106#2 605698328#0 605698328#1 292027340#1 -292025546 -292025545 -1246779610 -1211234344 292025083#3 292024871#0 -292024872#0" /></vehicle><vehicle id="veh24" type="car" depart="240.0"><route edges="-292025667#1 -292025667#0 -292025663#0 1203038225#0 1203038225#1 1203038225#2 46108373#1 292024661#0 292024663#1 292024663#2 292024704#0 -292024706#1 -292024706#0 46108373#7 46108373#8 46108373#9 -164802159#3 -164802159#2 -164802159#1 -164802176#1 -164802176#0 -1185227776 292027014#1 -1185227775 44716380#7 44716380#8 -1246774348#1 1203087601 291877163#0 291877163#1 -291868047#1 -291868047#0 292023821#0 -292023764#0 -1246774351 -292023781#0 -1246774346 1203088401#0 1203088401#1 1203088401#2 44680204#1 -44680203#12 -44680203#11 -44680203#9 -44680203#8 -44680203#7 -44680203#6 -44680203#5 -44680203#4 -44680203#3 -44680203#2 -44680203#0 -997648749#5 44680205#1 44680205#2 44680205#3 44680205#4 44680205#5 44680205#7 44680205#8 44680205#9 684948940#0 684948940#0" /></vehicle><vehicle id="veh25" type="car" depart="250.0"><route edges="291868047#0 291868047#1 291868047#1" /></vehicle><vehicle id="veh26" type="car" depart="260.0"><route edges="-291877904#3 -291877904#2 1185237194#0 1185237194#1 1185237194#2 1185237194#3 164802170#0 164802170#1 292027345 292027022#3 292027015#0 292027015#1 292027015#2 1184582476#1 292027010#3" /></vehicle><vehicle id="veh27" type="car" depart="270.0"><route edges="-291877163#0 -1203087601 1246774348#1 -44716380#8 -44716380#7 -44716380#5 -291878516#1 -291878516#0 -291878514#0 292023488#0 292023488#1 291877903#1 291877904#5 1306326480 317580221#2 317580220 -164802157#1 -164802157#0 -1185237199 -292027390#2 -292027390#1 -292027390#0 -1185237198 46108379#4 46108379#5 -36326989#2 -36326989#1 -36326989#0 605696840#3 1239031522 -686638462#6 -686638462#5 -686638462#5" /></vehicle><vehicle id="veh28" type="car" depart="280.0"><route edges="-686555584#1 -686555584#0 -292024662#1 -292024662#0 -46108373#12 -46108373#11 -686616066 292027022#1 292027022#2 292027022#3 292027015#0 292027015#1 292027015#2 1184582476#1 -292027010#3 292027012#0 292027012#1 1080439109 1116169317 292023765#2 -1185231636 -1185231635 -292023781#4 -292023781#3 292023820" /></vehicle><vehicle id="veh29" type="car" depart="290.0"><route edges="-46108379#1 -46108379#0 46108380#0 46108380#1 46108380#2 46108380#3 46108373#4 46108373#5 46108373#6 46108373#7 46108373#8 46108373#9 -164802159#3 -164802159#2 -164802159#1 292027345 292027022#3 292027015#0 292027015#1 292027015#2 1184582476#1 -292027010#3 292027012#0 292027012#1 1080439109 -292023848#0 1203088401#6 605695081#1 605695081#2 292025076#0 292025076#1 -1237997084 -235103533#3 -292024872#4 -292024872#3 292024875#0 292024876#3" /></vehicle><vehicle id="veh30" type="car" depart="300.0"><route edges="-46108373#2 292024661#0 292024663#1 -292024662#5 -292024662#4 -292024662#3 -292024662#2 -292024662#1 -292024662#0 46108373#13 46108373#14 1136644106#1 1136644106#2 605698328#0 605698328#1 605698328#2 292025084#0 292025084#1 292025084#2 -292025083#1 -292025083#0 -235103533#3 -292024872#4 -292024872#3 292024875#0 -292024876#3 -292024876#2 -292024876#1 292024903 1246778611 1211234343 1211234342#1 1117041445 29534879#8 29534879#9 565464672 80515454 565464671 80515444#2 683766478#0 691886300 -31756505#6 31756505#5" /></vehicle><vehicle id="veh31" type="car" depart="310.0"><route edges="1211234345 33050221#3 33050221#5 605698329#1 -994830064#3 -994830064#1 -1080439106#1 1184582302 -292027012#0 -292027010#2 -292027013#1 -1184582476#0" /></vehicle><vehicle id="veh32" type="car" depart="320.0"><route edges="317580221#1 -1306326480 -1306326479#1 -1306326479#0 291877904#0 1185237194#0 1185237194#1 1185237194#2 1185237194#3 164802170#0 164802170#1 292027345 292027022#3 292027015#0 -292027017" /></vehicle><vehicle id="veh33" type="car" depart="330.0"><route edges="-292024662#1 -292024662#0 -46108373#12 -686633494#2 -686633494#1 686633494#0" /></vehicle><vehicle id="veh34" type="car" depart="340.0"><route edges="579272354#0 579272354#1 682964487#0 -46108407#2 1239030821#0 1239030821#1 686638462#3 686638462#4 1239031489 686638459 605696840#2 36326989#0 36326989#1 36326989#2 -46108379#5 -46108379#4 1185237198 292027390#0 292027390#1 292027390#2 1185237199 164802157#0 164802157#1 -317580220 -317580221#2 -1306326480 -291877904#5 -291877903#1 -292023488#1 -292023488#0 291878514#0 291878516#0 291878516#1 44716380#5 44716380#7 44716380#8 -1246774348#1 1203087601 291877163#0 291877163#1 -291868047#1 -291868047#0 292023821#0 -292023764#0 -1246774351 -292023781#0 -1246774346 1203088401#0 1203088401#1 1203088401#2 44680204#1 -44680203#12 -44680203#11 -44680203#9 -44680203#8 -44680203#7 -44680203#6 -44680203#5 -44680203#5" /></vehicle><vehicle id="veh35" type="car" depart="350.0"><route edges="-292024329#0 -1185237193 -46108373#7 -46108373#6 -46108373#5 -46108373#4 -46108380#3 -46108380#2 -46108380#1 -46108380#0 46108379#0 46108379#1 1307402760 46108376 -1184126822#1 -1184126822#0 -1184126821 -36326989#1 -36326989#0 605696840#3 605696840#4 -773571759" /></vehicle><vehicle id="veh36" type="car" depart="360.0"><route edges="605698329#2 605698329#3 1185227774 292027023 1185227773 1185227772 686633494#0 686633494#1 686633494#2 46108373#12 292024662#0 292024662#1 686555584#0 686555584#1 924403692 1184127904" /></vehicle><vehicle id="veh37" type="car" depart="370.0"><route edges="-292025663#3 -292025667#2 -292025669 -292025663#2" /></vehicle><vehicle id="veh38" type="car" depart="380.0"><route edges="-682844000#2 1365739638#1 1363977040#0 1363977040#1 1363977040#2 567831194#4 43540177#0 43540177#1 682964524 605696840#0 605696840#1 605696840#2 605696840#3 605696840#4 605696840#5 605696840#6 1203038225#0 1203038225#1 1203038225#2 46108373#1 292024661#0 292024663#1 292024663#2 292024704#0 -292024706#1 -292024706#0 46108373#7 46108373#8 46108373#9 -164802159#3 -164802159#2 -164802159#1 -164802176#1 -164802176#0 -292027013#0" /></vehicle><vehicle id="veh39" type="car" depart="390.0"><route edges="164802174#5 164802174#6 1185246532 1185246531 164802172#2 605695087#9 605695087#9" /></vehicle><vehicle id="veh40" type="car" depart="400.0"><route edges="686638462#0 773571761#0 773571761#1 -773571759 605696840#5 605696840#6 1203038225#0 1203038225#1 1203038225#2 1203038225#3 1136644106#0 1136644106#1 1136644106#2 605698328#0 605698328#1 605698328#2 292025084#0 292025084#1 292025084#2 -292025083#1 -292025083#0 -235103533#3 -292024872#4 -292024872#3 292024875#0 -292024876#3 -292024876#2 -292024876#1 -292024876#1" /></vehicle><vehicle id="veh41" type="car" depart="410.0"><route edges="-997648749#2 605695081#5 -1211234345 -292024872#6 -292024872#5 -292024872#4 -292024872#3 292024875#0 -292024876#3 -292024876#2 -292024876#1 292024903 1246778611 1211234343 1211234342#1 1117041445 29534879#8 -1214792661#1 -1214792661#0 -1237199970 1237199969" /></vehicle><vehicle id="veh42" type="car" depart="420.0"><route edges="292023764#0 292023821#1 292023781#2 292023781#3 292023781#4 -1185231635" /></vehicle><vehicle id="veh43" type="car" depart="430.0"><route edges="-292027345 -164802170#1 -291878514#1 -291878514#0 292023488#0 292023488#0" /></vehicle><vehicle id="veh44" type="car" depart="440.0"><route edges="292024663#0 292024663#1 292024663#2 292024704#0 -292024706#1 -292024706#0 46108373#7 46108373#8 46108373#9 -164802159#3 -164802159#2 -164802159#1 292027345 292027022#3 292027015#0 292027015#1 292027015#2 1184582476#1 -292027010#3 292027012#0 292027012#1 1080439109 1080439109" /></vehicle><vehicle id="veh45" type="car" depart="450.0"><route edges="-1184583540#0 -164802167#2 -164802167#1 -164802167#0 1306326480 317580221#2 317580220 -164802157#1 -164802157#0 292027391#1 292027391#2 292027391#3 292027391#4 292027391#5 292027391#6 686646774#0 -686646774#1" /></vehicle><vehicle id="veh46" type="car" depart="460.0"><route edges="997643075 44680203#2 44680203#3 44680203#4 44680203#5 44680203#6 44680203#7 44680203#8 44680203#9 44680203#11 44680203#12 -44680204#1 605695087#1 605695087#2 1246774346 292023781#0 1246774351 292023764#0 -292023821#0 291868047#0 291877474#0 291877474#1 1246774350 1246774350" /></vehicle><vehicle id="veh47" type="car" depart="470.0"><route edges="-46108380#1 -46108380#0 46108379#0 46108379#1 46108379#2 46108379#3 46108379#4 46108379#5 46108379#7 46108379#8 46108379#8" /></vehicle><vehicle id="veh48" type="car" depart="480.0"><route edges="292025754 111218029#9 111218029#10 111218035#0 111218035#1 111218035#2 292025685#1" /></vehicle><vehicle id="veh49" type="car" depart="490.0"><route edges="235103533#3 292025083#0 292025083#1 -292025084#2 -292025084#1 292025078#4 1246781006#0 1246781007 1246781007" /></vehicle><vehicle id="veh50" type="car" depart="500.0"><route edges="-292025667#1 -292025667#0 -292025663#0 1203038225#0 1203038225#1 1203038225#2 46108373#1 292024661#0 292024663#1 292024663#2 292024704#0 -292024706#1 -292024706#0 46108373#7 46108373#8 46108373#9 -164802159#3 -164802159#2 -164802159#1 -164802176#1 -164802176#0 -1185227776 292027014#1 -1185227775 44716380#7 44716380#8 -1246774348#1 1203087601 291877163#0 291877163#1 -291868047#1 -291868047#0 292023821#0 292023821#0" /></vehicle><vehicle id="veh51" type="car" depart="510.0"><route edges="-1307402760 -46108379#1 -46108379#0 46108380#0 46108380#1 46108380#2 46108380#3 -46108373#3 -46108373#2 -46108373#1 1203038225#3 292025708 1239058047 292024648#4 292025709 111288196#4 -111218035#0 -111218029#10 -111218029#9 -111218029#7 -111218029#6 111218029#4" /></vehicle><vehicle id="veh52" type="car" depart="520.0"><route edges="-111288362 111288196#2 235103461#0 235103461#1 1136644107#2 -46108373#14 -46108373#13 292024662#0 292024662#1 292024662#2 292024662#3 292024662#4 292024662#5 -292024663#1 -292024661#0 46108373#2 46108373#3 -46108380#3 -46108380#2 -46108380#1 -46108380#0 46108379#0 46108379#1 46108379#2 46108379#3 46108379#4 46108379#5 46108379#7 -686646774#2 -686646774#1 686646774#0" /></vehicle><vehicle id="veh53" type="car" depart="530.0"><route edges="579272354#0 579272354#1 682964487#0 -46108407#2 1239030821#0 1239030821#1 686638462#3 686638462#4 1239031489 686638459 605696840#2 605696840#3 605696840#4 605696840#5 605696840#6 1203038225#0 1203038225#1 1203038225#2 46108373#1 292024661#0 292024663#1 292024663#2 292024704#0 -292024706#1 -292024706#0 46108373#7 46108373#8 46108373#9 -164802159#3 -164802159#2 -164802159#1 292027345 292027022#3 292027015#0 292027015#1 292027015#2 -1184582476#0 -292027013#1" /></vehicle><vehicle id="veh54" type="car" depart="540.0"><route edges="1080512081#1 164802172#0 369853361#0 369853361#1 44716380#2 44716380#3 44716380#4 44716380#5 44716380#7 44716380#8 -1246774348#1 1203087601 291877127 -292023764#3 -292023764#2 -292023820" /></vehicle><vehicle id="veh55" type="car" depart="550.0"><route edges="605698328#5 605698328#6 605698329#1 -994830064#3 -1080439108 -292023915#1 -292023915#0 -1080317752 -292027017 -292027015#0 -292027022#3 -292027345 -164802170#1 -164802170#0 -1185237194#3 -1185237194#2 -1185237194#1 -1185237194#0 -291877904#0 -994832893#1 -994832893#0 -776771535#0 -164802157#0 292027391#1 292027391#2 292027392 -292027394#2 -292027394#1 -292027394#0 -292027393#1 -686678114#2 -686678114#1 -686678114#0 686678115#3 605696842#1 -46108375#3 605695090 423755579#8 567831194#0 567831194#0" /></vehicle><vehicle id="veh56" type="car" depart="560.0"><route edges="292027022#2 292027022#3 292027015#0 292027015#1 292027015#2 1184582476#1 -292027010#3 292027012#0 292027012#1 1080439109 1116169317 292023765#2 -1185231636 -1185231635 292023781#5 292023781#5" /></vehicle><vehicle id="veh57" type="car" depart="570.0"><route edges="292024872#5 292024872#6 1211234345 33050221#3 997648749#2 997648749#3 997648749#4 997648749#5 44680203#0 44680203#2 44680203#3 44680203#4 44680203#5 44680203#6 44680203#7 44680203#8 44680203#9 44680203#11 44680203#12 -44680204#1 605695087#1 605695087#2 1246774346 292023781#0 1246774351 292023764#0 -292023821#0 291868047#0 291877474#0 291877474#1 -291877474#2" /></vehicle><vehicle id="veh58" type="car" depart="580.0"><route edges="-44680205#10 -44680205#9 -44680205#8 -44680205#7 -44680205#5 -44680205#4 -44680205#3 -44680205#2 -44680205#1 997648749#5 44680203#0 44680203#2 44680203#3 44680203#4 44680203#5 44680203#6 44680203#7 44680203#8 44680203#9 44680203#11 44680203#12 -44680204#1 1203088401#3 -1185231634 -292023842#1 -292023842#0 -292023781#5 1185231635 1185231636 -292023765#2 -292023765#1 -1192927298 -292023764#4 -291877127 -1203087601 1246774348#1 -44716380#8 -44716380#7 -44716380#5 -291878516#1 -291878516#0 -291878514#0 292023488#0 292023488#1 291877903#1 291877904#5 1306326480 317580221#2 317580220 -164802157#1 -164802157#0 292027391#1 292027391#2 292027391#3 1184617300#0 1306323162" /></vehicle><vehicle id="veh59" type="car" depart="590.0"><route edges="-36326990 36326989#1 36326989#2 -46108379#5 -46108379#4 1185237198 292027390#0 292027390#1 292027390#2 1185237199 164802157#0 164802157#1 -317580220 -317580221#2 -1306326480 -291877904#5 -291877903#1 -292023488#1 -292023488#0 291878514#0 291878516#0 291878516#1 44716380#5 44716380#7 44716380#8 -1246774348#1 1203087601 291877163#0 291877163#1 -291868047#1 -291868047#0 292023821#0 -292023764#0 -1246774351 -292023781#0 -1246774346 1203088401#0 1203088401#1 1203088401#2 44680204#1 -44680203#12 -44680203#11 -44680203#9 -44680203#8 -44680203#7 -44680203#6 -44680203#5 -44680203#4 -44680203#3 -44680203#2 -44680203#0 -997648749#5 44680205#1 44680205#2 44680205#3 44680205#4 44680205#5 44680205#7 44680205#8 -44680205#9" /></vehicle><vehicle id="veh60" type="car" depart="600.0"><route edges="-111218035#0 -111218029#10 -111218029#9 -111218029#7 -111218029#6 -111218029#4 -111218029#2 -111218029#1 682964522#3" /></vehicle><vehicle id="veh61" type="car" depart="610.0"><route edges="-292027391#4 -292027391#3 -292027391#2 -292027391#1 164802157#0 776771535#0 994832893#0 994832893#1 291877904#0 1185237194#0 1185237194#1 1185237194#2 1185237194#3 164802170#0 164802170#1 292027345 292027022#3 292027015#0 292027015#1 292027015#2 1184582476#1 -292027010#3 292027012#0 292027012#1 1080439109 -292023848#0 1203088401#6 605695081#1 292025078#0 292025078#1 292025077#1 -1237997084 -235103533#3 -292024872#4 -292024872#3 292024875#0 -292024876#3 -292024876#2 -292024876#1 -292024876#0 292024873#1 -1190347818" /></vehicle><vehicle id="veh62" type="car" depart="620.0"><route edges="579272357#1 164801128#0 164801128#1 682964487#0 -46108407#2 1239030821#0 1239030821#1 686638462#3 686638460 686638461#0" /></vehicle><vehicle id="veh63" type="car" depart="630.0"><route edges="292024650#2 292024648#3 -1239058047 -292025708 1136644106#0 -46108373#14 -46108373#13 -46108373#12 -46108373#11 -686616066 292027022#1 -292027344 -164802159#1 -164802170#1 -164802170#0 -1185237194#3 -1185237194#2 -1185237194#1 -1185237194#0 291877904#2 291877904#3 1184583581 1185258350" /></vehicle><vehicle id="veh64" type="car" depart="640.0"><route edges="-1211234343 -1246778611 -292024903 292024876#1 292024876#2 292024876#3 -292024875#0 292024872#3 292024872#4 292024872#5 292024872#6 1211234345 33050221#3 997648749#2 997648749#3 997648749#4 997648749#5 44680203#0 44680203#2 44680203#3 44680203#4 44680203#5 44680203#6 44680203#7 44680203#8 44680203#9 44680203#11 44680203#12 -44680204#1 1203088401#3 -1185231634 -292023842#1 -292023842#0 -292023781#5 1185231635 1185231636 -292023765#2 -292023765#1 -1192927298 -292023764#4 -291877127 -1203087601 1246774348#1 -44716380#8 -44716380#7 -44716380#5 -291878516#1 -291878516#0 -291878514#0 292023488#0 292023488#1 291877903#1 291877904#5 1306326480 317580221#2 317580220 -164802157#1 -164802157#0 292027391#1 292027391#2 292027392 292027394#2" /></vehicle><vehicle id="veh65" type="car" depart="650.0"><route edges="1080439106#1 -994830064#0 -292023915#0 -1080317752 -292027017 -292027015#0 -292027022#3 -292027022#2 -292027344 164802159#2 164802159#3 -46108373#9 -46108373#8 -46108373#7 -46108373#6 -46108373#5 -46108373#4 -46108380#3 -46108380#2 -46108380#1 -46108380#0 -46108378#2 1383933629 1307402759 1307402759" /></vehicle><vehicle id="veh66" type="car" depart="660.0"><route edges="-292025665 -292025667#0 -292025663#0 36326993#4 36326993#5 36326993#6 36326993#7 682964523 -686636881#1 -423755471#1 -423755501 423755576#2 567831194#3" /></vehicle><vehicle id="veh67" type="car" depart="670.0"><route edges="-776773435 686633494#2 -46108373#11 -686616066 292027022#1 292027022#2 292027022#3 292027015#0 292027015#1 292027015#2 1184582476#1 -292027010#3 292027012#0 292027012#1 1080439109 -292023848#0 1203088401#6 605695081#1 292025078#0 292025078#1 292025077#1 -1237997084 -235103533#3 -292024872#4 -292024872#3 -292024872#3" /></vehicle><vehicle id="veh68" type="car" depart="680.0"><route edges="1185231631#1 1185231632 -44716380#10 -44716380#8 -44716380#7 1185227775 -292027014#1 1185227776 292027013#0 292027013#1 292027010#2 292027010#3 292027010#4 292027010#4" /></vehicle><vehicle id="veh69" type="car" depart="690.0"><route edges="292024648#1 292024648#2 292024648#3 -1239058047 -292025708 1136644106#0 -46108373#14 -46108373#13 -46108373#12 -46108373#11 -686616066 292027022#1 292027022#2 292027022#3 292027015#0 292027015#1 292027015#2 1184582476#1 -292027010#3 292027012#0 292027012#1 1080439109 1116169317 292023765#2 -1185231636 -1185231635 -292023781#4 -292023781#3 -292023781#2 -292023781#1 -292023781#0 -1246774346 1203088401#0 1203088401#1 1203088401#2 44680204#1 -44680203#12 -44680203#12" /></vehicle><vehicle id="veh70" type="car" depart="700.0"><route edges="-164802157#5 -164802157#4 -164802157#3 -686641857 317580221#0 317580221#1 -1306326480 -1306326479#1 -1306326479#0 291877904#0 1185237194#0 1185237194#1 1185237194#2 -1119782847 -46108373#4 -46108373#3 -46108373#2 -46108373#1 1203038225#3 292025708 1239058047 -292024648#3 -292024648#2 -292024648#1 292024648#0" /></vehicle><vehicle id="veh71" type="car" depart="710.0"><route edges="1076248781#1 -36326990 -36326989#0 605696840#3 605696840#4 605696840#5 605696840#6 1203038225#0 1203038225#1 1203038225#2 1203038225#3 292025708 1239058047 292024648#4 1239051719 1239051719" /></vehicle><vehicle id="veh72" type="car" depart="720.0"><route edges="-164802157#5 -164802157#4 -164802157#3 -686641857 317580221#0 317580221#1 -1306326480 -291877904#5 -291877903#1 -292023488#1 -292023488#0 291878514#0 291878516#0 291878516#1 44716380#5 44716380#7 44716380#8 291877045 1203088403 292023765#0 292023765#1 -1116169317 -292023848#0 1203088401#6 605695081#1 292025078#0 292025078#1 292025077#1 -1237997084 -235103533#3 -235103533#2 -292024882#0" /></vehicle><vehicle id="veh73" type="car" depart="730.0"><route edges="-44680203#9 -44680203#8 -44680203#7 -44680203#6 -44680203#5 -44680203#4 -44680203#3 -44680203#2 -44680203#0 -997648749#5 44680205#1 44680205#2 44680205#3 423865135 189304970#2" /></vehicle><vehicle id="veh74" type="car" depart="740.0"><route edges="-292024873#1 292024876#0 292024876#1 -292024876#2" /></vehicle><vehicle id="veh75" type="car" depart="750.0"><route edges="-1211234343 -1246778611 -292024903 292024876#1 292024876#2 292024876#3 -292024875#0 292024872#3 292024872#4 292024872#5 292024872#6 1211234345 33050221#3 997648749#2 997648749#3 997648749#4 997648749#5 44680203#0 44680203#2 44680203#3 44680203#4 44680203#5 44680203#6 44680203#7 44680203#8 44680203#9 44680203#11 44680203#12 -44680204#1 1203088401#3 -1185231634 -292023842#1 -292023842#0 -292023781#5 1185231635 1185231636 -292023765#2 -292023765#1 -1192927298 -292023764#4 292023764#3" /></vehicle><vehicle id="veh76" type="car" depart="760.0"><route edges="1211234345 33050221#3 33050221#5 605698329#1 -994830064#3 -1080439108 -292023915#1 -292023915#0 -1080317752 -292027017 -292027015#0 -292027022#3 -292027345 -164802170#1 -164802170#0 -1185237194#3 -1185237194#2 -1185237194#1 -1185237194#0 -291877904#0 -994832893#1 -994832893#0 -776771535#0 -164802157#0 292027391#1 292027391#2 292027391#3 292027391#4 -292027393#2 -292027393#1 -686678114#2 -686678114#1 -686678114#0 686678115#3 605696842#1 605696842#1" /></vehicle><vehicle id="veh77" type="car" depart="770.0"><route edges="-46108379#4 -46108379#3 -46108379#2 -46108379#1 -46108379#0 46108380#0 46108380#1 46108380#2 46108380#3 46108373#4 46108373#5 46108373#6 46108373#7 46108373#8 46108373#9 -164802159#3 -164802159#2 -164802159#1 292027345 292027022#3 292027015#0 292027015#1 292027015#2 1184582476#1 -292027010#3 292027012#0 292027012#1 1080439109 -292023848#0 1203088401#6 605695081#1 605695081#2 292025076#0 292025076#1 -1237997084 -1237997084" /></vehicle>