<routes><vType id="car" accel="2.6" decel="4.5" sigma="0.5" length="5" minGap="2.5" maxSpeed="70" guiShape="passenger" /><vehicle id="veh0" type="car" depart="0.0"><route edges="-24584383#2 -24584383#1 -24584383#0 -1354558617 -675478334#9 -675478334#8 -675478334#7 -675478334#5 -1072963716#1" /></vehicle><vehicle id="veh1" type="car" depart="10.0"><route edges="-371342951#1 -371342951#0 1287398725#3 1066077571#0 1066077571#1 1066077571#2 447141145 447141146 570413590 570427355#0 570427355#1 722082933 447143201#0 447143201#1 24577102 717907819#0 717907819#1 717907819#2 24584388#0 24584388#1 24584388#2 24584389#3 782774053 722082950 570413589#0 570413589#1 570413589#2 -24584381#17 -24584381#16 -24584381#15 -24584381#14 -138947059#1 -1072960941#0 -1271156413#1 -1271156413#0 1271156421#5 1271156420#1 80678182#0 80678182#1 80678182#2 24584502 24584500#5 24584500#6 24584500#7 24584503#0 24584503#1" /></vehicle><vehicle id="veh2" type="car" depart="20.0"><route edges="-24584504#2 -24584504#1 -24584504#0 -24584503#1 -24584503#0 24584500#0 24584500#1 24584500#2 24584500#3 24584501 -80678182#2 -80678182#1 -80678182#0 581245357 581245359" /></vehicle><vehicle id="veh3" type="car" depart="30.0"><route edges="44277692#1 44277692#2 447141149#1 447141149#2 665150702 554665390 570526052 24583320 24584375#0 24584375#1 -24584383#0 -1354558617 -675478334#9 -675478334#8 -675478334#7 -675478334#5 -675478334#4 -675478334#3 -675478334#2 -675478334#1 -675478334#0 24584380#8 -1271156414#1 -24584422#1 24584416#1 24584416#2 -24584418#2 1271156421#2" /></vehicle><vehicle id="veh4" type="car" depart="40.0"><route edges="-24584511#7 -24584511#6 -24584511#5 -24584511#4 -24584511#3 686684499 -24584510 24584500#3 24584501 -80678182#2 -80678182#1 -80678182#0 581245357 581245359 24584414#0 1072960941#0 -24584381#10 -24584381#9 -24584381#8 -24584381#7 675478334#0 675478334#1 675478334#2 675478334#3 675478334#4 -1072963716#1" /></vehicle><vehicle id="veh5" type="car" depart="50.0"><route edges="24584416#3 24584416#4 1271156412#0 1072960940 -24584414#2 -24584414#1 1072960941#0" /></vehicle><vehicle id="veh6" type="car" depart="60.0"><route edges="24584384#3 24584384#4 24584384#5 24584381#3 24584381#4 24584380#8 24584380#9 24584379 1278775919 24583771#0 24584396 1271156421#0 -24584421#1" /></vehicle><vehicle id="veh7" type="car" depart="70.0"><route edges="-24584385#0 -24584383#1 -24584383#0 -1354558617 24584377#7 24584377#8 24584377#9 447141152 570526053 447141150#0 447141150#1 447141149#0 447141149#1 447141149#2 665150702 554665390 24583321#0 24583321#1 24583321#2 997761553 997761552#0 997761552#1 -24583487#12 -24583487#11" /></vehicle><vehicle id="veh8" type="car" depart="80.0"><route edges="24584421#1 24584422#0 24584416#1 24584416#2 24584416#3 24584416#4 1271156412#0 1072960940 -24584414#2 -24584414#1 1072960941#0 138947059#1 24584381#14 24584381#15 24584381#16 24584381#17 447141139 447141140#0 447141140#1 447141140#2 24584377#0 24584377#1" /></vehicle><vehicle id="veh9" type="car" depart="90.0"><route edges="1159291804 447141155#0 447141155#1 447141155#2 31756488 665150699#0 1126838107 447141143#1-AddedOnRampEdge 447141143#1 447141143#2 665150665 998197441 447141151#0 447141151#1 447141151#2 447141151#3 447141151#5 447141151#6 447141151#7 447141150#0 111695525#0 -1292286059 686685084#0" /></vehicle><vehicle id="veh10" type="car" depart="100.0"><route edges="447141150#0 447141150#1 447141149#0 447141149#1 447141149#2 665150702 554665390 570526052 24583320 570526051 447141152 48964552#0 48964552#1 48964552#2 48964552#3 48964552#4 48964552#5 998197440 447141154 1278775919 24583771#0 24584396 1271156421#0 -24584421#1" /></vehicle><vehicle id="veh11" type="car" depart="110.0"><route edges="111695524#5 44277692#1 44277692#2 447141149#1 447141149#2 665150702 554665390 570526052 24583320 24584375#0 24584375#1 24584383#1 24584383#2 24584383#3 24584383#4" /></vehicle><vehicle id="veh12" type="car" depart="120.0"><route edges="80926764#5 80926764#6 717907807#1 717907807#2 717907807#3 717907807#4 717907807#5 717907807#6 24583320 570526051 447141152 48964552#0 447141151#6 80926781#0 80926781#1" /></vehicle><vehicle id="veh13" type="car" depart="130.0"><route edges="80926768#5 278577243#2 278577243#3 278577243#4 998197441 447141141 998197440 24584378#0 24584378#1 24584378#2 24584378#3 24584378#5 24584378#7 24584378#8 24584378#9 24584378#10 447141140#2 722082949#0 722082949#1 447141153#0 611866595#0 611866595#1 611866595#2 611866595#3 611866595#4 611866594 611866596#0 611866596#1 1066077570#0 1066077570#1 1066077570#2 447141137#0 1287398725#0 164786644#0" /></vehicle><vehicle id="veh14" type="car" depart="140.0"><route edges="611866595#1 611866595#2 611866595#3 24584386 -611866592#2 -80926782 -24584392#4 -24584392#2 -686696454#2 24584380#1 24584380#2 24584380#3 24584380#4 24584380#5 24584378#3 24584378#5" /></vehicle><vehicle id="veh15" type="car" depart="150.0"><route edges="447141155#1 -24584424#5 -24584424#4 -24584424#3 -24584424#2 -24584424#1 -24584424#0 80678182#2 24584502 24584500#5 24584500#6 24584500#7 24584503#0 24584503#1" /></vehicle><vehicle id="veh16" type="car" depart="160.0"><route edges="24583332#6 24583332#7 554665390 570526052 24583320 570526051 447141152 48964552#0 447141151#6 80926781#0 80926781#1 -695576804#1 -1072954052#2 -1122026496#0" /></vehicle><vehicle id="veh17" type="car" depart="170.0"><route edges="1066625119#1 1066625119#2 1066625119#3 717907819#4 717907819#5 717907818#0 717907818#1 44257667 717907819#0 717907819#1 717907819#2 24584388#0 24584388#1 24584388#2 24584389#3 782774053 722082950 570413589#0 570413589#1 570413589#2 447141139 447141140#0 447141140#1 447141140#2 24584377#0 24584377#1 24584377#2 24584377#3 24584377#4 24584377#5 24584377#6 24584377#7 24584377#8 24584377#9 447141152 570526053 447141150#0 447141150#1 447141149#0 447141149#1 447141149#2 665150702 554665390 24583321#0 24583321#1 24583321#2 997761553 997761552#0 997761552#1 -24583487#12 -24583487#11 -24583487#10 -24583487#9 -24583487#8" /></vehicle><vehicle id="veh18" type="car" depart="180.0"><route edges="24584414#0 24584414#1 24584414#2 -1072960940 -1271156412#0 -24584416#4 24584426#1 1271156414#0 1271156414#1" /></vehicle><vehicle id="veh19" type="car" depart="190.0"><route edges="1126838107 447141143#1-AddedOnRampEdge 447141143#1 447141143#2 665150665 998197441 447141141 998197440 24584378#0 24584378#1 24584378#2 24584378#3 24584378#5 24584378#7 24584378#8 686696454#2 24584392#2 24584375#8 24584375#9" /></vehicle><vehicle id="veh20" type="car" depart="200.0"><route edges="-24584420#6 -24584420#5 -24584420#4 -24584420#3 -24584420#2 -24584420#1 -24584421#0 24584424#4 24584424#5 447141155#2 31756488 665150699#0 1126838107 447141143#1-AddedOnRampEdge 447141143#1 447141143#2 665150665 998197441 447141151#0 447141151#1 447141151#2 447141151#3 447141151#5 447141151#6 80926781#0 80926781#1 -695576804#1 -1072954052#2" /></vehicle><vehicle id="veh21" type="car" depart="210.0"><route edges="-24584420#7 -24584420#6 -24584420#5 -24584420#4 -24584420#3 -24584420#2 -24584420#1 -24584421#0 24584424#4 24584424#5 447141155#2 31756488 665150699#0 665150699#2 749606303#0 749606303#1 749606302#0 749606302#1 749606302#2 278577251 749606304#0 749606304#1 278577243#0 -686834805#7 -686834805#6 -686834805#5 -686834805#3 -686834805#2 -686834805#1" /></vehicle><vehicle id="veh22" type="car" depart="220.0"><route edges="1122257058 24584375#4 24584375#5 24584375#6 24584375#7 -24584392#2 -686696454#2 24584380#1 24584380#2 24584380#3 24584380#4 24584380#5 24584380#6 24584380#7 24584380#8 24584380#9 24584379 1278775919 24583771#0 24583771#1 24583771#2 24583773 447141155#0 447141155#1 447141155#2 502579562 44188368#0 44188368#1 -24584509 24584508#1" /></vehicle><vehicle id="veh23" type="car" depart="230.0"><route edges="1271156413#1 1072960941#0 -24584381#10 -24584381#9 -24584381#8 -24584381#7 675478334#0 675478334#1 675478334#2 675478334#3 675478334#4" /></vehicle><vehicle id="veh24" type="car" depart="240.0"><route edges="-24584381#8 -24584381#7 675478334#0 675478334#1 675478334#2 675478334#3 675478334#4 675478334#5 675478334#7 675478334#8 675478334#9 24584377#7 24584377#8 24584377#9 447141152 570526053 447141150#0 111695525#0 1066625120#0 1066625120#1 1066625120#2 1066625120#3" /></vehicle><vehicle id="veh25" type="car" depart="250.0"><route edges="447141138#0 447141138#1 611866597 24584390#0 24584390#1 24584389#0 24584389#1 24584389#2 24584389#3 782774053 722082950 570413589#0 570413589#1 570413589#2 447141139 24584380#0 24584380#1 24584380#2 24584380#3 24584380#4 24584380#5 24584380#6 24584380#7 24584380#8 24584380#9 24584379 1278775919 24583771#0 24584396 1271156421#0 -24584421#1" /></vehicle><vehicle id="veh26" type="car" depart="260.0"><route edges="-24584511#1 -24584507#0 24584506 24584500#2 24584500#3 24584501 -80678182#2 24584424#0 24584424#1 24584424#2 24584424#3 24584424#4 24584424#5 447141155#2 31756488 665150699#0 665150699#2 749606303#0 749606303#1 749606302#0 752137329#0" /></vehicle><vehicle id="veh27" type="car" depart="270.0"><route edges="24584381#3 24584381#4 24584378#2 24584378#3 24584378#5 24584378#7 24584378#8" /></vehicle><vehicle id="veh28" type="car" depart="280.0"><route edges="-1354558617 -675478334#9 -675478334#8 -675478334#7 -675478334#5 -675478334#4 -675478334#3 -675478334#2 -675478334#1 -675478334#0 24584380#8 -1271156414#1 -24584422#1 24584416#1 24584416#2 24584416#3 24584416#4 1271156412#0 1271156412#1 80926773#0 1271156421#4 1271156421#5 1271156420#1 80678182#0 80678182#1 80678182#2 24584502 24584500#5 24584500#6 24584500#7 24584503#0" /></vehicle><vehicle id="veh29" type="car" depart="290.0"><route edges="-24584381#16 -24584381#15 -24584381#14 -138947059#1 -1072960941#0 -1271156413#1 -1271156413#0 -1271156421#4 80926773#1 -24584420#6 -24584420#5 -24584420#4 -24584420#3 -24584420#2 -24584420#1 -24584421#0 24584424#4 24584424#5 447141155#2 502579562 44188368#0 -24584511#9 -24584511#8 -1073010466 -1072960945#1" /></vehicle><vehicle id="veh30" type="car" depart="300.0"><route edges="994825990#2 447141148 572511731 447141147#0 447141147#1 447141147#2 24583324#0 24583324#1 590609994#0 590609994#1 717907807#0 -80926764#6 -80926764#5 -80926764#4 -80926764#3 -80926764#2 -80926764#1 -80926764#0 -24584383#4" /></vehicle><vehicle id="veh31" type="car" depart="310.0"><route edges="24583488#4 24583488#5 -24583489#7 -24583489#6 -24583489#5 -24583489#3 -24583489#2 -24583489#1 -24583489#0 24583332#1 24583332#2 24583332#4 24583332#6 24583332#7 554665390 570526052 24583320 570526051 447141152 48964552#0 48964552#1 48964552#2 48964552#3 48964552#4 48964552#5 998197440 447141154 1278775919 24583771#0 24584396 1271156421#0 24584422#0" /></vehicle><vehicle id="veh32" type="car" depart="320.0"><route edges="-80926782 -24584392#4 -24584392#2 -686696454#2 24584380#1 24584380#2 24584380#3 24584380#4 24584380#5 24584380#6 24584380#7 24584380#8 24584380#9 24584379 1278775919 24583771#0 24583771#1 24583771#2 24583773 447141155#0 447141155#1 447141155#2 502579562 44188368#0" /></vehicle><vehicle id="veh33" type="car" depart="330.0"><route edges="-24584420#8 -24584420#7 -80926773#1 -80926773#0 1271156412#2 1271156413#1 1072960941#0 -24584381#10 -24584381#9 -24584381#8 -24584381#7 675478334#0 675478334#1 675478334#2 675478334#3 675478334#4 -1072963716#1 1072978656#1 1072978656#2" /></vehicle><vehicle id="veh34" type="car" depart="340.0"><route edges="-686834805#3 -686834805#2 -686834805#1 -686834805#0 80926778#1 80926778#2 80926778#3 80926778#4 80926778#5 80926778#6 80926778#7 -80926774#1 -80926774#0 -80926781#4 -80926781#2 -80926781#1 -80926781#0 447141151#7 447141150#0 447141150#1 447141149#0 447141149#1 447141149#2 665150702 554665390 24583321#0 24583321#1 24583321#2 997761553 997761552#0 997761552#1 -24583487#12 -24583487#11 -24583489#13 -24583489#12 -24583489#11 -24583489#9 -24583489#8 -24583488#5 -24583488#4 -24583488#3 -24583488#2 612734122" /></vehicle><vehicle id="veh35" type="car" depart="350.0"><route edges="24584416#3 24584416#4 -24584414#3 -24584414#2 -24584414#1 1072960941#0 138947059#1 24584381#14 24584381#15 24584381#16 24584381#17 447141139 447141140#0 447141140#1 447141140#2 722082949#0 722082949#1 447141153#0 447141153#1 24584389#0 24584389#1 1066625119#0 1066625119#1 1066625119#2 1066625119#3 717907819#4 717907819#5 23134746#0 23134746#1" /></vehicle><vehicle id="veh36" type="car" depart="360.0"><route edges="-1060463406#1 -1060463406#0 -1060463405#1 -1292286062 1066625120#2 1066625120#3 80926768#2" /></vehicle><vehicle id="veh37" type="car" depart="370.0"><route edges="24584388#2 24584389#3 782774053 722082950 570413589#0 570413589#1 570413589#2 447141139 24584380#0 24584380#1 24584380#2 24584380#3 24584380#4 24584380#5 24584380#6 24584380#7 24584380#8 24584380#9 24584379 1278775919 24583771#0 24583771#1 24583771#2 24583773 447141155#0 447141155#1 447141155#2 31756488 665150699#0 665150699#2 749606303#0 749606303#1 749606302#0 749606302#1 749606302#2 278577251 749606304#0 749606304#1 278577243#0 -686834805#7 -686834805#6 -686834805#5 -1072978660#1" /></vehicle><vehicle id="veh38" type="car" depart="380.0"><route edges="717907817#1 717907817#2 717907817#3 717907817#4 717907817#5 24577101#1 1066077572 717907814#0 717907814#2 717907814#3 717907814#5 717907814#6 717907814#7 717907814#8 447141137#1 447141137#2 758753881#0 -695569947 80926764#3 80926764#4 80926764#5 80926764#6 717907807#1 717907807#2 717907807#3 717907807#4 717907807#5 717907807#6 24583320 570526051 447141152 570526053 447141150#0 111695525#0 1066625120#0 1066625120#1 1066625120#2 -44277694#4 -80926778#5 -80926778#4 -80926778#3 -80926778#2 -80926778#1 686834805#0 686834805#1 1183653757#0" /></vehicle><vehicle id="veh39" type="car" depart="390.0"><route edges="-1073010466 1072960946#2 1072960946#3 1072960946#4 1072960944#1 -1072960943#0" /></vehicle><vehicle id="veh40" type="car" depart="400.0"><route edges="-24583489#1 -24583489#0 24583332#1 24583332#2 24583332#4 24583332#6 24583332#7 554665390 570526052 24583320 570526051 447141152 570526053 447141150#0 111695525#0 1066625120#0 1066625120#1 1066625120#2" /></vehicle><vehicle id="veh41" type="car" depart="410.0"><route edges="24584375#7 24584375#8 24584375#9 24584375#10 447141153#0 447141153#1 24584389#0 24584389#1 24584389#2 24584389#3 714990514#0 714990514#1 24584398#0 24584398#1 24584398#2 24584398#3 24584398#4 581522559 570413588#0 570413588#1 714990513#0 714990513#1" /></vehicle><vehicle id="veh42" type="car" depart="420.0"><route edges="-1072960943#0 -24584512#0 -24584511#1 -24584507#0 24584506 24584500#2 24584500#3 24584501 -80678182#2 24584424#0 24584424#1 24584424#2 24584424#3 24584424#4 24584424#5" /></vehicle><vehicle id="veh43" type="car" depart="430.0"><route edges="997761552#0 997761552#1 994825990#0 994825990#1 994825990#2 447141148 572511731 447141147#0 447141147#1 447141147#2 758753883 1248777180#0 1287398725#0 164786644#0 164786644#1 164786644#2" /></vehicle><vehicle id="veh44" type="car" depart="440.0"><route edges="-1183653757#0 -686834805#1 -686834805#0 80926778#1 80926778#2 80926778#3 80926778#4 80926778#5 80926778#6 80926778#7 -80926774#1 -80926774#0 -80926781#4 1122028504#0" /></vehicle><vehicle id="veh45" type="car" depart="450.0"><route edges="-80926773#0 1271156412#2 1271156413#1 1072960941#0 138947059#1 24584381#14 24584381#15 24584381#16" /></vehicle><vehicle id="veh46" type="car" depart="460.0"><route edges="447141138#1 611866597 24584390#0 24584390#1 24584389#0 24584389#1 24584389#2 24584389#3 782774053 722082950 570413589#0 570413589#1 570413589#2 447141139 447141140#0 447141140#1 447141140#2 24584377#0 24584377#1 24584377#2 24584377#3 24584377#4 24584377#5 24584377#6 24584377#7 24584377#8 24584377#9 447141152 570526053 447141150#0 447141150#1 447141149#0 447141149#1 447141149#2 1219699878#0 1219699878#1 1219699878#2 24583330#0 24583330#1 1122215532#0 -1122215528#1 -1122215528#0" /></vehicle><vehicle id="veh47" type="car" depart="470.0"><route edges="-24583489#1 -24583489#0 24583332#1 24583332#2 24583332#4 24583332#6 24583332#7 554665390 570526052 24583320 570526051 447141152 48964552#0 48964552#1 48964552#2 48964552#3 48964552#4 48964552#5 998197440 447141154 1278775919 24583771#0 24583771#1 24583771#2 24583773 447141155#0 447141155#1 447141155#2 502579562 44188368#0 -24584511#9 -24584511#8 -1073010466" /></vehicle><vehicle id="veh48" type="car" depart="480.0"><route edges="994825990#0 994825990#1 994825990#2 447141148 24583327#0 24583327#1 24583327#2 24583327#3 24583327#4 24583327#5 24583327#6 24583327#7" /></vehicle><vehicle id="veh49" type="car" depart="490.0"><route edges="80926778#2 80926778#3 80926778#4 80926778#5 80926778#6 80926778#7 -80926774#1 -80926774#0 -80926781#4 -80926781#2 -80926781#1 -80926781#0 447141151#7 447141150#0 447141150#1 447141149#0 447141149#1 447141149#2 665150702 554665390 24583321#0 24583321#1 24583321#2 997761553 997761552#0 997761552#1 -24583487#12 -24583487#11 -24583489#13 -24583489#12 -24583489#11 -24583489#9 -24583489#8 -24583488#5 -24583488#4 -24583488#3 -24583488#2 612734122" /></vehicle><vehicle id="veh50" type="car" depart="500.0"><route edges="24584414#2 -1072960940 -1271156412#0 -24584416#4 -24584426#0 -24584417#1 -24584420#3 -24584420#2 -24584420#1 -24584421#0" /></vehicle><vehicle id="veh51" type="car" depart="510.0"><route edges="24584415#1 24584379 1278775919 24583771#0 24583771#1 24583771#2 24583773 447141155#0 447141155#1 447141155#2 31756488 665150699#0 1126838107 447141143#1-AddedOnRampEdge 447141143#1 447141143#2 665150665 998197441 447141151#0 447141151#1 447141151#2 447141151#3 447141151#5 447141151#6 447141151#7 447141150#0 447141150#1 447141149#0 447141149#1 447141149#2 1219699878#0 1219699878#1 1219699878#2" /></vehicle><vehicle id="veh52" type="car" depart="520.0"><route edges="-24584511#1 -24584507#0 24584506 24584500#2 24584500#3 24584501 -80678182#2 -80678182#1 -80678182#0 1271156422 -1271156421#5 1271156413#0 1271156413#1 1072960941#0 138947059#1 24584381#14 24584381#15 24584381#16 24584381#17 447141139 447141140#0 447141140#1 447141140#2 24584377#0 24584377#1 24584377#2 24584377#3 24584377#4 24584377#5 24584377#6 24584377#7" /></vehicle><vehicle id="veh53" type="car" depart="530.0"><route edges="1271156413#0 1271156413#1 1072960941#0 138947059#1 24584381#14 24584381#15 24584381#16 24584381#17 447141139 447141140#0 447141140#1 447141140#2 24584377#0 24584377#1 24584377#2 24584377#3 24584377#4 24584377#5 24584377#6 24584377#7 24584377#8 24584377#9 447141152 570526053 447141150#0 447141150#1 447141149#0 447141149#1 447141149#2 665150702 554665390 24583321#0 24583321#1 24583321#2 997761553 997761552#0 997761552#1 -24583487#12 -24583487#11 -24583489#13 -24583489#12 -24583489#11 -24583489#9 -24583489#8 -24583489#7" /></vehicle><vehicle id="veh54" type="car" depart="540.0"><route edges="1287398725#2 1287398725#3 1066077571#0 1066077571#1 1066077571#2 447141145 447141146 570413590 570427355#0 570427355#1 722082933 447143201#0 447143201#1 24577102 717907819#0 717907819#1 717907819#2 24584388#0 24584388#1 24584388#2 24584389#3 782774053 722082950 570413589#0 570413589#1 570413589#2 -24584381#17 -24584381#16 -24584381#15 -24584381#14 -138947059#1 -1072960941#0 -1271156413#1 -1271156413#0 1271156421#5 1271156420#1 80678182#0 80678182#1" /></vehicle><vehicle id="veh55" type="car" depart="550.0"><route edges="-686685084#0 1292286059 44277692#1 44277692#2 447141149#1 447141149#2 665150702 554665390 570526052 24583320 24584375#0 24584375#1 24584375#2 24584375#3 24584375#4 24584375#5 24584375#6 24584375#7 24584375#8 24584375#9 24584375#10 447141153#0 447141153#1 24584389#0 24584389#1 24584389#2 24584389#3 714990514#0 714990514#1 24584398#0 24584398#1 24584398#2 24584398#3 24584398#4 570413587#0 570413587#1 581245361" /></vehicle><vehicle id="veh56" type="car" depart="560.0"><route edges="111695524#5 44277692#1 44277692#2 447141149#1 447141149#2 665150702 554665390 570526052 24583320 24584375#0 24584375#1 24584375#2 24584375#3 24584375#4 24584375#5 24584375#6 24584375#7 24584375#8 24584375#9 24584375#10 447141153#0 447141153#1 24584389#0 24584389#1 24584389#2 24584389#3 782774053 722082950 570413589#0 570413589#1 570413589#2 -24584381#17 -24584381#16 -24584381#15 -24584381#14" /></vehicle><vehicle id="veh57" type="car" depart="570.0"><route edges="717907814#8 447141137#1 447141137#2 758753881#0 -695569947 -80926764#2 -80926764#1 -80926764#0 -24584383#4 -24584383#3 -24584383#2 -24584383#1 -24584383#0 -1354558617 -675478334#9 -675478334#8 -675478334#7 -675478334#5" /></vehicle><vehicle id="veh58" type="car" depart="580.0"><route edges="675478334#5 675478334#7 675478334#8 675478334#9 1354558617 24584383#0 24584383#1 24584383#2" /></vehicle><vehicle id="veh59" type="car" depart="590.0"><route edges="1278775919 24583771#0 24583771#1 24583771#2 24583773 447141155#0 447141155#1 447141155#2 31756488 665150699#0 1126838107 447141143#1-AddedOnRampEdge 447141143#1 447141143#2 665150665 998197441 447141141 998197440 24584378#0 24584378#1 675478334#0 675478334#1 675478334#2 675478334#3 675478334#4 675478334#5 675478334#7 675478334#8 675478334#9 1354558617 24584383#0 24584383#1 24584383#2" /></vehicle><vehicle id="veh60" type="car" depart="600.0"><route edges="278577243#1 278577243#2 278577243#3 278577243#4 998197441 447141151#0 447141151#1 447141151#2 447141151#3 447141151#5 447141151#6 447141151#7 447141150#0 447141150#1 447141149#0 447141149#1 447141149#2 1219699878#0 1219699878#1 1219699878#2 24583332#4 24583332#6" /></vehicle><vehicle id="veh61" type="car" depart="610.0"><route edges="-24584503#4 -24584503#3 -24584503#2 -24584503#1 -24584503#0 24584500#0 24584500#1 24584500#2 24584500#3 24584501 -80678182#2 -80678182#1 -80678182#0 1271156422 -1271156415 -1271156412#3 1271156413#1 1072960941#0 138947059#1 24584381#14 24584381#15 24584381#16 24584381#17 447141139 447141140#0 447141140#1 447141140#2 722082949#0 722082949#1 447141153#0 611866595#0 611866595#1 611866595#2 611866595#3 24584386 -611866592#2 -611866592#1 -611866592#0 24584383#4 80926764#0 80926764#1 80926764#2 695569947 758753881#1 758753882 590609994#0 590609994#1 572511730 447141148 24583327#0 24583327#1 24583327#2 24583327#3 24583327#4 24583327#5 24583327#6 24583327#7 24583327#8" /></vehicle><vehicle id="veh62" type="car" depart="620.0"><route edges="1060463405#0 -1292286062 1066625120#2 1066625120#3 80926768#2 80926768#3 -80926778#2" /></vehicle><vehicle id="veh63" type="car" depart="630.0"><route edges="1072960944#1 -1072960943#0 -24584512#0 -24584511#1 -24584507#0 24584506 24584500#2 24584500#3 24584501 -80678182#2 24584424#0 24584424#1 24584424#2 24584424#3 24584424#4 24584424#5 447141155#2 31756488 665150699#0 665150699#2 749606303#0" /></vehicle><vehicle id="veh64" type="car" depart="640.0"><route edges="-686696454#0 -24584410 24584411#2 -24584412 24584381#10 -1072960941#0 -24584414#0" /></vehicle><vehicle id="veh65" type="car" depart="650.0"><route edges="-686685084#1 -686685084#0 1292286059 44277692#1 44277692#2 447141149#1 447141149#2 665150702 554665390 24583321#0 24583321#1 24583321#2 997761553 997761552#0 997761552#1 -24583487#12 -24583487#11 -24583489#13 -24583489#12 -24583489#11 -24583489#9 -24583489#8 -24583488#5 1122220361" /></vehicle><vehicle id="veh66" type="car" depart="660.0"><route edges="-686685084#2 -686685084#1 -686685084#0 1292286059 44277692#1 44277692#2 447141149#1 447141149#2 665150702 554665390 570526052 24583320 24584375#0 24584375#1 24584383#1 24584383#2 24584383#3 611866592#0 611866592#1 611866592#2 611866593#0 611866593#1 611866596#0 611866596#1 778199266#2" /></vehicle><vehicle id="veh67" type="car" depart="670.0"><route edges="1183653755 1183653754#1 -1250154743#0 80926768#5 278577243#2 278577243#3 278577243#4 998197441 447141141 998197440 447141154 1278775919 24583771#0 24584396 1271156421#0" /></vehicle><vehicle id="veh68" type="car" depart="680.0"><route edges="-1122220358#0 -24583489#6 -24583489#5 -24583489#3 -24583489#2 -24583489#1 -24583489#0 24583332#1 24583332#2 24583332#4 24583332#6 24583332#7 554665390 570526052 24583320 570526051 447141152 570526053 447141150#0 111695525#0 1066625120#0 1066625120#1 1066625120#2 -44277694#4 -80926778#5 -80926778#4 -80926778#3 80926768#4 1250154743#0 -1072978659#1 686834805#7" /></vehicle><vehicle id="veh69" type="car" depart="690.0"><route edges="278577243#4 998197441 447141151#0 447141151#1 447141151#2 447141151#3 447141151#5 447141151#6 447141151#7 447141150#0 447141150#1 447141149#0 447141149#1 447141149#2 665150702 554665390 24583321#0 24583321#1 24583321#2 997761553 997761552#0 997761552#1 -24583487#12 -24583487#11 -24583489#13 -24583489#12 -24583489#11 -24583489#9 -24583489#8 -24583489#7 -24583489#6" /></vehicle><vehicle id="veh70" type="car" depart="700.0"><route edges="1072960940 -24584414#2 -24584414#1 1072960941#0 138947059#1 24584381#14 24584381#15 24584381#16 24584381#17 447141139 447141140#0 447141140#1 447141140#2 24584377#0 24584377#1 24584377#2 24584377#3 24584377#4 24584377#5 24584377#6 24584377#7 24584377#8 24584377#9 447141152 570526053 447141150#0 447141150#1 447141149#0 447141149#1 447141149#2 665150702 554665390 24583321#0 24583321#1 24583321#2 997761553 997761552#0 997761552#1 -24583487#12 -24583487#11 -24583487#10 -24583487#9 -24583487#8 -24583487#7 -24583487#6" /></vehicle><vehicle id="veh71" type="car" depart="710.0"><route edges="-24584511#7 -24584511#6 -24584511#5 -24584511#4 -24584511#3 686684499 -24584510 24584500#3 24584501 -80678182#2 -80678182#1 -80678182#0 1271156422 -1271156421#5 1271156413#0 1271156413#1 1072960941#0 -24584381#10 -24584381#9 -24584381#8 -24584381#7 675478334#0 675478334#1 675478334#2 675478334#3 675478334#4 675478334#5 675478334#7" /></vehicle><vehicle id="veh72" type="car" depart="720.0"><route edges="80926768#2 -665146761 80926778#5 -44277694#3 -44277694#2 -44277694#1 -44277694#0 278577243#3 278577243#4 998197441 447141141 998197440 447141154 1278775919 24583771#0 24584396 1271156421#0 24584422#0" /></vehicle><vehicle id="veh73" type="car" depart="730.0"><route edges="24583335#1 447141147#2 758753883 1248777180#0 778199266#0 778199266#1 778199266#2 1064518284 447141138#0 447141138#1 611866597 24584390#0 24584390#1 24584389#0 24584389#1 24584389#2 24584389#3 782774053 722082950 570413589#0 570413589#1 570413589#2 -24584381#17 -24584381#16 -24584381#15 -24584381#14 -138947059#1 -1072960941#0 -1271156413#1 -1271156413#0 1271156421#5 1271156420#1 80678182#0 80678182#1 80678182#2 24584502 24584500#5 24584500#6 24584500#7 24584503#0 24584503#1" /></vehicle><vehicle id="veh74" type="car" depart="740.0"><route edges="24584412 24584411#0 24584411#1 24584410 686696454#0 686696454#2 24584392#2 24584392#4 80926782 -611866592#1 -611866592#0 24584383#4 80926764#0 80926764#1 80926764#2 80926764#3 80926764#4 80926764#5" /></vehicle><vehicle id="veh75" type="car" depart="750.0"><route edges="997761552#1 994825990#0 994825990#1 994825990#2 447141148 572511731 447141147#0 447141147#1 447141147#2 24583324#0 24583324#1 590609994#0 590609994#1 717907807#0 -80926764#6 -80926764#5 -24584385#2" /></vehicle><vehicle id="veh76" type="car" depart="760.0"><route edges="-1122028504#1 -1122028504#0 -80926781#2 -80926781#1 -80926781#0 447141151#7 447141150#0 447141150#1 447141149#0 447141149#1 447141149#2 665150702 554665390" /></vehicle><vehicle id="veh77" type="car" depart="770.0"><route edges="-164786644#2 -164786644#1 -164786644#0 1287398725#1 1287398725#2 1287398725#3 1066077571#0 1066077571#1 1066077571#2 447141145 447141146 570413590 570427355#0 570427355#1 722082933 447143201#0 447143201#1 24577102 717907819#0 717907819#1 717907819#2 24584388#0 24584388#1 24584388#2 24584389#3 782774053 722082950 570413589#0 570413589#1 570413589#2 -24584381#17 -24584381#16 -24584381#15 -24584381#14 -138947059#1 -1072960941#0 -1271156413#1 -1271156413#0 1271156421#5 1271156420#1 80678182#0 80678182#1 80678182#2 24584502 24584500#5 24584500#6 24584500#7 24584503#0 24584503#1 24584503#2" /></vehicle><vehicle id="veh78" type="car" depart="780.0"><route edges="80926778#3 80926778#4 80926778#5 -44277694#3 -44277694#2 -44277694#1 -44277694#0 278577243#3 278577243#4 998197441 447141141 998197440 24584378#0 24584378#1 24584378#2 24584378#3 24584378#5 24584378#7 24584378#8 686696454#2 24584392#2 24584377#1" /></vehicle><vehicle id="veh79" type="car" depart="790.0"><route edges="24584421#0 24584420#1 24584420#2 24584418#1 24584418#2 24584416#3" /></vehicle><vehicle id="veh80" type="car" depart="800.0"><route edges="-1122220358#0 -24583489#6 -24583489#5 -24583489#3 -24583489#2 -24583489#1 -24583489#0 24583332#1 24583332#2 24583332#4 24583332#6 24583332#7 554665390 570526052 24583320 24584375#0 24584375#1 -24584383#0 -1354558617 -675478334#9 -675478334#8 -675478334#7 -675478334#5 -675478334#4 -675478334#3 -675478334#2 -675478334#1 -675478334#0 -24584381#4" /></vehicle><vehicle id="veh81" type="car" depart="810.0"><route edges="-24584420#8 -24584420#7 -80926773#1 -80926773#0 1271156412#2 1271156413#1 1072960941#0 138947059#1 24584381#14 24584381#15 24584381#16 24584381#17 447141139 447141140#0 447141140#1 447141140#2 722082949#0 722082949#1 447141153#0 611866595#0 611866595#1 611866595#2 611866595#3 24584386 -611866592#2 -611866592#1 -611866592#0 24584383#4 80926764#0 80926764#1 80926764#2 80926764#3 80926764#4 80926764#5 80926764#6 717907807#1 717907807#2" /></vehicle><vehicle id="veh82" type="car" depart="820.0"><route edges="-612734122 24583488#2 24583488#3 24583488#4 24583488#5 -24583489#7 -24583489#6 -24583489#5 -24583489#3 -24583489#2 -24583489#1 -24583489#0 24583332#1 24583332#2 24583332#4 24583332#6 24583332#7 554665390 570526052 24583320 570526051 447141152 570526053 447141150#0 111695525#0 1066625120#0 1066625120#1 1066625120#2 -44277694#4 -80926778#5 -80926778#4 -80926778#3 -80926778#2 -80926778#1 686834805#0 686834805#1 1183653757#0" /></vehicle><vehicle id="veh83" type="car" depart="830.0"><route edges="24584417#0 -24584420#3 24584418#1 -1271156421#1 -1271156421#0" /></vehicle><vehicle id="veh84" type="car" depart="840.0"><route edges="2