<routes><vType id="car" accel="2.6" decel="4.5" sigma="0.5" length="5" minGap="2.5" maxSpeed="70" guiShape="passenger" /><vehicle id="veh0" type="car" depart="0.0"><route edges="24584377#5 24584377#6 24584377#7 24584377#8 613095661 24584375#1 24584383#1 24584385#0 24584385#1 24584385#2 80926764#5 80926764#6 717907807#1 717907807#2 717907807#3 717907807#4 717907807#5 717907807#6 24583320 570526051 447141152 570526053 447141150#0 447141150#1 447141149#0 447141149#1 447141149#2 1219699878#0 1219699878#1 1219699878#2 1219699880 24583330#0 24583330#1 24583330#2 24583330#3 24583330#4 24583330#5 24583330#6 24583330#7 24583330#8 615556515#0 615556515#1 615556515#2 564223494#0 564223494#1 564223494#2 564223494#3 554665389#0 554665389#1 554665389#2 578543604 578543606 730111073#0 730111073#1 730111073#2 446922590#0 446922590#1 446922590#2 446922590#3 446922590#4 446922590#5 446922590#6 596346055#0 596346055#1 596346055#2 1252826818#0 1252826818#1 1252826818#2 1252826818#3 1252826818#4 1252826818#5 154356516#0 154356516#1 154356516#2 154356516#3 154356516#4 154356516#5 686771927#0 686771927#1 750482273#5 750482273#6 154356520#3 -1076782193#0 -1076782194#1" /></vehicle><vehicle id="veh1" type="car" depart="10.0"><route edges="577982260#5 577982260#6 577982260#7 24577118#0 24577118#1 24577118#2 24577118#3 24577118#4 24577118#5 24577118#6 24577118#7 24577118#8 24577118#9 24577118#10 1240749877 24583589 995793692#3 995793692#4 995793692#5 995793692#6 995793692#7 563975284#0 563975284#1 712992070 614072000 563679821#0 563679821#1 563679821#2 563679821#3 563679821#4 563679821#5 562340241 562340248#0 562340248#1 564223496#0 564223496#1 578543605 564223494#0 564223494#1 564223494#2 564223494#3 554665389#0 554665389#1 554665389#2 125453679#0 125453679#1 125453679#2 -24584373#0 80926759#4 686925959 -38235041#7" /></vehicle><vehicle id="veh2" type="car" depart="20.0"><route edges="44263457#2 44263457#3 44263457#4 44263457#5 44263457#6 44263457#7 44263457#8 44263461#7 44263461#8 615556519#5 615556519#6 1253487631#0 1253487631#1 773816585#2 -773816585#1 -1185899956#1 -1185899956#0 615556519#8 -773816586#2 -773816586#1 -773816586#0 -44263457#0 -1145143266#11 1219699876#6 1219699876#7 1285005493#1 1285005493#2 1285005493#3 1285005493#4 1285005493#5 1285005493#6 1285005493#7 1285005493#8 -686792709#2 -686792709#1 686792708 1145143266#2 1145143266#3 -686792705#1 686792698#0 686792698#1 686792698#2 686792698#3 686792698#4 686792698#5 -686792699#0 -1145143266#9 -1145143266#8 -1145143266#7 -1145143266#6 -1145143266#5 -1145143266#1 -686792710#1 -686792710#0 1386084973 1072933744#0 1123526751 -253307769#2 -253307769#1 253307772 311994764#0 311994764#1 311994764#2 -1203012173 311994764#3 1386086512#0 1386086512#1 44263458#7 590610031#1 -1386086511#1 -1386086511#0 590610031#2 31056642#0 31056642#1 31056642#2 31056642#3 590609996 779129470 80926788#0 80926788#1 80926788#2 80926788#3 80926788#4 80926788#5 80926788#6 80926788#7 463699077#0 463699077#1 492439727#0 492439727#1 492439727#2 492439726#0 492439726#1 80926759#0 80926759#1 80926759#2 80926759#3 80926759#4 686925959 -38235041#7 -686878276" /></vehicle><vehicle id="veh3" type="car" depart="30.0"><route edges="446922590#0 446922590#1 24577486#0 24577486#1 24577486#2 23133600#12 23133600#13 23133600#14 24577488#5 24577488#6 24577488#7 24583332#0 24583332#1 24583332#2 24583332#3 24583332#4 24583332#5 24583332#6 24583332#7 24583332#8 24583332#9 24583332#10 24583332#11 24583332#12 24583332#13 24583332#14 24583332#15 24583332#16 24583332#17 554665390 570526052 24583320 24584375#0 24584375#1 -24584383#0" /></vehicle><vehicle id="veh4" type="car" depart="40.0"><route edges="-1122215529#0 24583330#3 24583330#4 24583330#5 24583330#6 24583330#7 24583330#8 615556515#0 615556515#1 615556515#2 564223494#0 564223494#1 564223494#2 564223494#3 554665389#0 554665389#1 554665389#2 578543604 578543606 730111073#0 730111073#1 730111073#2 446922590#0 446922590#1 446922590#2 446922590#3 446922590#4 446922590#5 446922590#6 596349216 572511732#0 572511732#1 572511732#2 572511732#3 572511732#4 24582917#0 24582917#1 24582917#2 24582917#3 1076510349#0 1076510349#1 1076510348 -553590474#6 -553590474#5 -553590474#4 -553590474#3 -553590474#2 -553590474#1 -700293879#2 -1121139432#2" /></vehicle><vehicle id="veh5" type="car" depart="50.0"><route edges="-123406178#1 123406184#0 123406184#1 -38235349#1 -38235349#0 360250362#0 360250362#1 1076749552 38235041#1 38235041#2 38235041#3 38235041#4 38235041#5 38235041#6 154090267#0 154090267#1 154090267#2 154090267#3 80414533#2 80414533#3 80414533#4 80414533#5 267447262#0 1310427872#0 1310427872#1 -360250362#3 1076827648 267447262#1 -778256872#1 1183848780 -83675250#1 -300626290 -123406196#0 -267447262#3 267447262#4 319329101#0 319329101#1 319329101#2 319329101#3 319329101#4 267447262#5 267447262#6 267447262#7 267447262#8 267447262#9 267447262#10 1183845624 267447262#11 267447262#12 -484725394 -123401419#1 -123401419#0 -319329101#8 -38235349#3 993538737 293153156#1 -293153161#2 -293153161#1 -293153161#0 293153163#0 293153145#0 293153145#1 293153141#1 293153159#1 -293153143 164698290#3 1076749550 293153163#2 993538735 164698293#1 164698293#2 1139138538 -164698293#0 293153163#3 293153163#4 -993538736#1 -993538736#0 293153159#3 293153158#1 -293153158#0 -164698290#1 164698291#0 -164698290#8 -164698290#7 -164698290#6 1076749549 164698289#1 164698289#2 164698289#3 164698289#4 164698290#9 -164698290#0 -319329101#7 319329101#9 319329101#10 319329101#11 80926759#4 80926759#5 80926759#6 80926759#7 578543606 730111073#0 730111073#1 730111073#2 446922590#0 446922590#1 24577486#0 24577486#1 24577486#2 24577486#3 24577486#4 23133486#24 23133486#25 23133486#26 23133486#0 23133486#1 23133486#2 23133486#3 23133486#4 23133486#5 24577482#0 24577482#1 24577482#2 1375201075 760480737 578543603#1 578543603#2 578543603#3 578543603#4 611866604#0 611866604#1 553596950 74851427 164782722 -265975966#5 1312753969#0 1312753969#1 665921720 665921719 665921717 1312753970#0 611866603#0 611866603#1 997761541#0 997761541#1 997761541#2 997761541#3 561672574#0 561672574#1 561672574#2 142865883#0" /></vehicle><vehicle id="veh6" type="car" depart="60.0"><route edges="-1076782194#0 1312753969#1 665921720 665921719 665921717 1312753970#0 1312753970#1 1312753970#2 1312753970#3 996679780#0 996679781#3 80499778#0 80499778#1 80499778#2 80499778#3 80499778#4 80499778#5 80499778#6 562340247#0 562340247#1 562340247#2 562340247#3 562340247#4 562340247#5 562340245 23133709#0 23133709#1 23133709#2 23133709#3 23133709#4 23133709#5 562340241 562340248#0 562340248#1 564223496#0 564223496#1 578543605 564223494#0 564223494#1 564223494#2 564223494#3 554665389#0 554665389#1 554665389#2 125453679#0 125453679#1 125453679#2 -24584373#0 80926759#4 686925959 -38235041#7 -38235041#6 -38235041#5 -38235041#4 -38235041#3 -38235041#2 -360250361 -38235351#1 -38235351#0 -993538739 38235351#2 38235349#0 38235349#1 38235349#2 993538737 -293153156#0 -293153141#1 -293153145#1" /></vehicle><vehicle id="veh7" type="car" depart="70.0"><route edges="80926764#5 80926764#6 717907807#1 717907807#2 717907807#3 717907807#4 717907807#5 717907807#6 24583320 24584375#0 24584375#1 24584375#2 24584375#3 -1122257058 -24584392#5 80926782 -611866592#1 -611866592#0 24584383#4 80926764#0 80926764#1 80926764#2 695569947 758753881#1 758753882 590609994#0 590609994#1 572511730 447141148 572511731 447141147#0 24583334#0 24583334#1 24583334#2 24583334#3 24583334#4 24583334#5 24583337#3 24583337#4 24583337#5 1374632731 24583491#0 24583491#1 24583491#2 24583491#3 563974730#3 -24583495#10 -24583495#9 -24583495#8 -24583495#7 -24583495#6 -24583495#5 -24583495#4 -24583495#3 -24583495#2 -24583495#1 -24583495#0 24583495#11 74851428#2 74851428#3 74851428#4 74851428#5 563791811#0 596373342 614071995 596373338#0 596373338#1 596373338#2 596373338#3 596373338#4 596373338#5 596373338#6 596373338#7 596373338#8 596373338#9 596373338#10 596373338#11 596373338#12 596373338#13 562340239 722082943#0 722082943#1 23134734#0 23134734#1 23134734#2 23134734#3 710645770 447141133#0 447141133#1 722082944 447141132#0 447141132#1 447141132#2 447141132#3 447141132#4" /></vehicle><vehicle id="veh8" type="car" depart="80.0"><route edges="-343654534#1 -343654534#0 570616026#8 570616026#9 570616026#10 563975285 563974733#0 563974733#1 995793692#0 995793692#1 995793692#2 995793692#3 995793692#4 995793692#5 995793692#6 995793692#7 563975284#0 563975284#1 563974730#0 563974730#1 563974730#2 563974730#3 563974730#4 563974730#5 579151950 1066619122#0 1066619122#1 24583487#0 24583487#1 24583487#2 24583487#3 24583487#4 24583487#5 24583487#6 24583487#7 24583487#8 24583487#9 24583487#10 24583487#11 -24583489#13 -24583489#12 -24583489#11 -24583489#10 -24583489#9 -24583489#8 -24583489#7 -24583489#6 -24583489#5 -24583489#4 1122215539 -24583489#3 -24583489#2 -24583489#1 -24583489#0 24583332#11 24583332#12 1219699879 24583330#0 24583330#1 24583330#2 24583330#3 24583330#4 24583330#5 24583330#6 -103176793#4 -1122038572#1 1122038573#0 1122038574#0 -1122038574#3 1122038575 1122038573#1 -1122038572#0 -24584374#5 -993539970 -697766793#0 -103176793#2 686682898#0 686682898#1 1122038571 686682898#2 1074987321 686682898#3 -44263461#0 -615556516 1078118953 24583332#2 24583332#3 24583332#4 24583332#5 24583332#6 24583332#7 24583332#8" /></vehicle><vehicle id="veh9" type="car" depart="90.0"><route edges="579781481#11 570616027 23133709#0 23133709#1 23133709#2 23133709#3 23133709#4 23133709#5 562340241 562340248#0 562340248#1 564223496#0 564223496#1 578543605 564223494#0 564223494#1 564223494#2 564223494#3 31056641 1393463455#0 1393463455#1 1393463455#2 615556519#0 615556519#1 615556519#2 615556519#3 615556519#4 615556519#5 615556519#6 615556519#7 615556519#8 615556519#9 615556519#10 1285005493#0 1285005493#1 1285005493#2 1285005493#3 1285005493#4 1285005493#5 1285005493#6 1285005493#7 1285005493#8 1285005493#9 1072933744#0 1123526751 -253307769#2 -1072914440#1" /></vehicle><vehicle id="veh10" type="car" depart="100.0"><route edges="578543603#1 578543603#2 578543603#3 578543603#4 578543603#5 578543603#6 578543603#7 523568284#0 996679780#0 996679780#1 996679780#2 563974735#0 563974735#1 24583592#0 24583592#1 24583596#0 -142216383 562499724#4 562499724#5 562499724#6 562499724#7 562499724#8 562499724#9 562499724#10 562499724#11 562499724#12 562499724#13 562499724#14 562499724#15 562499724#16 562499724#17 24583592#4 24583592#5 24583593#2 24583594#0 24583594#1 24583594#2 563679836#11 563679836#12 563679836#13 563679836#14 563679836#15 1242128092#0 1242128092#1 1242128093 370672194#0 370672194#1 370672194#2 370672194#3" /></vehicle><vehicle id="veh11" type="car" depart="110.0"><route edges="-80418095#4 -80418095#3 80418131#0 80418131#1 80418131#2 80418131#3 80418131#4 1080270727 -38699585#0 265975963#2 265975963#3 265975963#0 -38699586#1 -38699586#0 -1252826817 38699591#8 717454380#0 717454380#1 717454380#2 717454380#3 717454377#0 717454373 -717454377#2 -717454374 -1076782188#1 1076782188#2 717454376 717454379#1 717454375#0 717454375#1 717454379#2 717454379#3 717454379#4 -717454378 38699591#6 38699591#9 38699591#10 38699591#11 686914248 28103794#5 28103794#6 572511732#0 572511732#1 572511732#2 572511732#3 572511732#4 572511732#5 572511732#6 572511732#7 572511732#8 578543603#0 578543603#1 578543603#2 578543603#3 578543603#4 578543603#5 578543603#6 578543603#7 523568284#0 996679780#0 996679780#1 996679780#2 563974735#0 563974735#1 24583592#0 24583592#1 24583596#0 -142216383 -562499724#3 -562499724#2 -562499724#1 -562499724#0 563679836#8 563679836#9 563679836#10 563679836#11 563679836#12 563679836#13 563679836#14 563679836#15 1242128092#0 998790353#2 998790353#3 998790353#4 -998790354#7 -998790354#6 -998790354#5 -998790354#4 -998790354#3 -998790354#2 -998790354#1 -998790354#0 998790357#0 -577982260#6" /></vehicle><vehicle id="veh12" type="car" depart="120.0"><route edges="80926788#2 80926788#3 80926788#4 80926788#5 80926788#6 80926788#7 463699077#0 463699077#1 1331524579#0 1331524579#1 -1343796255 -267447262#15 -267447262#14 -120287376 -123401419#1 -123401419#0 -319329101#8 -38235349#3 993538737 293153156#1 -293153161#2 293153141#0 293153141#1 -293153145#1 293153159#1 293153159#2 293153159#3 293153158#1 -293153158#0 993538736#0 164698290#2 164698290#3 164698290#4 164698290#5 164698290#6 164698290#7 164698290#8 -164698291#0 -164698290#0 164698290#9 164698291#1 -164698289#3 -164698289#2 -164698289#1 -164698289#0 -293153163#3 -293153163#2 -293153163#1 -293153163#0 293153161#0 686878276 -38235041#6 -38235041#5 -38235041#4 -38235041#3 -38235041#2 -360250361 38235351#2" /></vehicle><vehicle id="veh13" type="car" depart="130.0"><route edges="1292286060#0 1292286060#1 111695524#3 111695524#4 44277690#1 44277690#2 44277690#3 44277690#4 44277690#5 44277690#6 1145143268#0 1145143268#1 31056642#2 31056642#3 590609996 779129470 590610031#0 590610031#1 -1386086511#1 -1072933744#1 1123526751 -253307769#2 -253307769#1 -253307769#0 -24584373#9 -24584373#8 -24584373#7 -24584373#6 -24584373#5 -24584373#4 -24584373#3 -24584373#2 -24584373#1 -24584373#0 80926759#4 80926759#5 80926759#6 80926759#7 578543606 80414533#0 80414533#1 -154090267#3" /></vehicle><vehicle id="veh14" type="car" depart="140.0"><route edges="656933877#6 656933877#7 656933877#8 1306148228 24577358#0 24577358#1 24577121#4 24577121#5 24577121#6 24577121#7 24577115#0 24577115#1 24577121#8 24577121#9 579781482#0 579781482#1 579781482#2 998790353#3 998790353#4 -998790354#7 -998790354#6 -998790354#5 -998790354#4 -998790354#3 -998790354#2 -998790354#1 -998790354#0 998790357#0 998790357#1 -998790356#8 -998790356#7 -998790356#6 -998790356#5 -998790356#4 -998790356#3 -998790356#2 -998790356#1 -998790356#0 998790360 23134734#0 23134734#1 23134734#2 23134734#3 710645770 447141133#0 447141133#1 722082944 447141132#0 447141132#1 370545701#0 370545701#1 370545701#2 24583337#9 24583337#10 -1122228221 24583769#1 24583770 24583769#2 -1122230043#1 1122230044 -1122230043#0 371342951#4 371342951#5 164786644#0 164786644#1 164786644#2 164786644#3 164786644#4 663858574 24583335#4 24583335#5 447141147#2 24583324#0 24583324#1 590609994#0 590609994#1 717907807#0 717907807#1 717907807#2 717907807#3 717907807#4 717907807#5 717907807#6 24583320 24584375#0 -613095661 24584377#9 447141152 570526053 447141150#0 447141150#1 447141149#0 447141149#1 447141149#2 1219699878#0 1219699878#1 1219699878#2 -1219699877 24583332#14 24583332#15 24583332#16 24583332#17 554665390 24583321#0 24583321#1 24583321#2 997761553 997761552#0 997761552#1 -24583487#13 -24583487#12 -24583489#13" /></vehicle><vehicle id="veh15" type="car" depart="150.0"><route edges="611866604#0 611866604#1 611866602#0 24582921#0 24582921#1 24582921#2 24582921#3 24582921#4 24582921#5 24582921#6 24582921#7 24582921#8 24582921#9 24582921#10 24582921#11 572511732#8 446922591 760480736 562340247#0 562340247#1 562340247#2 562340247#3 562340247#4 562340247#5 562340245 23133709#0 23133709#1 23133709#2 23133709#3 23133709#4 23133709#5 562340241 562340248#0 562340248#1 564223496#0 564223496#1 578543605 564223494#0 564223494#1 564223494#2 564223494#3 554665389#0 554665389#1 554665389#2 125453679#0 125453679#1 125453679#2 125453679#3 125453679#4 125453679#5 125453679#6 125453679#7 31058508#0 31058508#1 31058508#2 31058508#3 31058508#4 31058508#5 31056646#1 31056646#2" /></vehicle><vehicle id="veh16" type="car" depart="160.0"><route edges="1120299304 23133600#2 23133600#3 1375201075 760480736 562340247#0 562340247#1 562340247#2 562340247#3 562340247#4 562340247#5 562340245 23133709#0 23133709#1 23133709#2 23133709#3 23133709#4 596373346 596373332#0 596373332#1 596373332#2 596373332#3 596373332#4 596373332#5 614071999 596373342 563975284#1 563974730#0 563974730#1 563974730#2 563974730#3 563974730#4 563974730#5" /></vehicle><vehicle id="veh17" type="car" depart="170.0"><route edges="1072914437#1 1072914437#2 1072914437#3 1072914443#1 1072914443#2 311994765#1 311994765#2 24584373#9 24584373#10 24584373#11 1285005491 1219699881#0 24584374#0 24584374#1 24584374#2 24584374#3 24584374#4 24584374#5 24584374#6 24583330#6 24583330#7 24583330#8 1078118953 24583332#2 1074774612#0 1074774611 1074774612#1 -612734123#1 -612734123#0 -612734124#0 -24583488#1 -24583488#0 997761546#1 570616029#0 1384226015 570616028#1 1278775921#0 -103176785#2 -103176785#1 686657381 -423553702#0 235103610#3 235103610#4 563679821#2 563679821#3 563679821#4 -223906999#1 563679821#5 24577480#0 24577480#1 24577480#2 23133600#0 23133600#1 1120299304 23133600#2 23133600#3 1375201075 760480736 562340247#0 562340247#1 562340247#2 562340247#3 562340247#4 562340247#5 562340243 570616026#0 570616026#1 570616026#2 570616026#3 570616026#4 570616026#5 570616026#6 570616026#7 570616026#8 570616026#9 570616026#10 563975285 563679836#0 563679836#1 563679836#2 563679836#3 563679836#4 563679836#5 563679836#6 563679836#7 563679836#8 563679836#9 563679836#10 24583594#3 116046167#4 116046167#5 116046167#6 116046167#7 -995792406#8 -995792406#7 -995792406#6 686644352#0 686644352#1 686644352#2 -24583584#2 24577118#1" /></vehicle><vehicle id="veh18" type="car" depart="180.0"><route edges="1153925787#4 291266019#0 291266019#1 1312753970#0 611866603#0 611866603#1 997761541#0 997761541#1 1123316542 523568284#4 523568284#5 24583333#0 24583333#1 74851424#0 74851424#1 -1277942000#8 -1277942000#7 -1277942000#6 -1277942000#5 -1277942000#4 -1277942000#3 -561672577#1 -561672577#0 -561672574#0 997761541#4 997761541#5 997761541#6 997761541#7 997761541#8 561672574#1 561672574#2 142865883#0 142865883#1 -1121191979#2 -1307182526 -291266017#9 -291266017#8 -291266017#7 -291266017#6 -291266017#5 -291266017#4 -291266017#3 -291266017#2 -291266017#1 700293878#0 74851423#1 74851423#2 74851423#3 74851423#4 74851423#5 74851423#6 74851423#7 74851423#8 74851423#9 662886374#0 662886374#1 74851429#6 74851429#0 74851429#1 74851429#2 662886372#0 662886372#1 1277942000#0 1277942000#1 142865883#3 142865883#4 142865883#5 142865883#6 -553588769#1 -553588769#0 -142865883#8 370765175#0 -700293874#0 553590476#1 553590476#2 370765179#3 -633143618 -553590478#0 553590482#2 291266018#3 553590482#0 -553590478#2 -993539947 -370765179#1 -370765179#0 1138292933#0 1138292933#1 1138292933#2 1138292933#3 1138292933#4 1287065074#0 1287065074#1 1075734524#0 1075734524#1 24583333#6 446922584#0 446922584#1 446922586#0 446922586#1 995113415 570859666#0 570859666#1 570859666#2 446922583#0 446922583#1 712992079#0 712992079#1 1202691839#0 1202691839#1 -998790358#19 -998790358#18 -24583593#4 -24583593#3 -24583593#2 -24583592#5 -24583592#4" /></vehicle><vehicle id="veh19" type="car" depart="190.0"><route edges="-686771927#1 -686771927#0 154356516#6 154356516#7 154356516#8 154356516#9 154356516#10 750482273#5 1076782196#0 1076782196#1 -1076782193#1 154356520#4 154356520#5 686920282 665921720 665921719 665921717 1312753970#0 1312753970#1 1312753970#2 1312753970#3 996679780#0 996679780#1 996679780#2 563974735#0 563974735#1 563974735#2 563974735#3 563974735#4 563974735#5 563974735#6 563974735#7 563974735#8 563974735#9 563974735#10 563974733#0 563974733#1 995793692#0 995793692#1 995793692#2 -24583589 -1240749877 -24577118#10 -24577118#9 -24577118#8 -24577118#7 -24577118#6 -24577118#5 -24577118#4 -24577118#3 -24577118#2 -24577118#1 -24583584#1 -24583584#0 596373338#12 596373338#13 562340239 722082943#0 722082943#1 23134734#0 23134734#1 23134734#2 23134734#3 710645770 447141133#0 447141133#1 722082944 447141132#0 447141132#1 370545701#0 370545701#1 370545701#2 24583337#9 24583337#10 -1122228221 24583769#1 24583770 24583769#2 -1122230043#1 1122230044 -1122230043#0 371342951#4 371342951#5 164786644#0 164786644#1 164786644#2 164786644#3 164786644#4 663858574 24583335#4 24583335#5 447141147#2 24583324#0 24583324#1 590609994#0 590609994#1 572511730 447141148" /></vehicle><vehicle id="veh20" type="car" depart="200.0"><route edges="-370672196 24563436#1 24563436#2 24577358#0 24577358#1 24577121#4 24577121#5 24577121#6 24577121#7 24577115#0 24577115#1 24577121#8 24577121#9 579781482#0 579781482#1 579781482#2 998790353#3 998790353#4 -998790354#7 -998790354#6 -998790354#5 -998790354#4 -998790354#3 -998790354#2 -998790354#1 -998790354#0 998790357#0 998790357#1 -998790356#8 -998790356#7 -998790356#6 -998790356#5 -998790356#4 -998790356#3 -998790356#2 -998790356#1 -998790356#0 998790360 23134734#0 23134734#1 23134734#2 23134734#3 710645770 447141133#0 447141133#1 722082944 447141132#0 447141132#1 370545701#0 370545701#1 370545701#2 24583337#9 24583337#10 -1122228221 24583769#1 24583770 24583769#2 -1122230043#1 1122230044 -1122230043#0 371342951#4 371342951#5 164786644#0 164786644#1 164786644#2 164786644#3 164786644#4 663858574 24583335#4 24583335#5 447141147#2 24583324#0 24583324#1 590609994#0 590609994#1 717907807#0 717907807#1 717907807#2 717907807#3 717907807#4 717907807#5 717907807#6 24583320 24584375#0 -613095661 24584377#9 447141152 570526053 447141150#0 447141150#1 447141149#0 447141149#1 447141149#2 1219699878#0 1219699878#1 1219699878#2 -1219699877 24583332#14 24583332#15 24583332#16 24583332#17 554665390 24583321#0 24583321#1 24583321#2 997761553 997761552#0 997761552#1 -24583487#13 -24583487#12 -24583487#11 -24583487#10 -24583487#9 -24583487#8 -24583487#7 -24583487#6 -24583487#5 -24583487#4 -24583487#3 -24583487#2 -24583487#1 -24583487#0 1066619121#0 1066619121#1 997761547 -1066619123 24577478#2 996679779#0 996679779#1 996679779#2 996679779#3 996679779#4 996679779#5 996679779#6 996679779#7 447141147#0 24583334#0 663858577#0 663858577#1 24583334#3 24583334#4 24583334#5 24583337#3 24583493 24583495#0 24583495#1 24583495#2 24583495#3 24583495#4 24583495#5 24583495#6 24583495#7 24583495#8 24583495#9 24583495#10 563974730#4 24583495#11 74851428#2 442157836 -235103610#1 -235103610#0 -442157834 235103610#2 423553702#0 -686657381 -103176785#0 103176785#1 103176785#2 1278775921#1 1278775920 24577478#0 686664590 612750032#0 612750032#1 223906999#0 223906999#1 563679821#5 562340241 570616028#0 570616028#1 -1384226015 570616029#1 564223496#0 564223496#1 24583332#0 24583332#1 24583332#2 24583332#3 24583332#4 24583332#5 24583332#6 24583332#7 24583332#8 24583332#9 24583332#10 24583489#0 24583489#1 24583489#2 24583489#3 24583489#4 24583489#5 1122215540 24583489#6 1122220358#0" /></vehicle><vehicle id="veh21" type="car" depart="210.0"><route edges="-370672197#3 -370672197#2 -370672197#1 -370672197#0 712992080#1 712992080#2 712992080#3 712992080#4 995113419 570859666#0 570859666#1 570859666#2 446922583#0 446922583#1 722082942 447141131#0 447141131#1 720546573#0 720546573#1 720546573#2 720546573#3 720546573#4 720546573#5 720546573#6 720546573#7 720546573#8 720546573#9 563974732#1 563974732#2 563974735#0 563974735#1 24583592#0 24583592#1 24583592#2 24583592#3 562499724#18 562499724#19 24583592#4 24583592#5 -24583593#1 24583593#2 24583593#3 24583593#4 998790358#18 998790358#19 998790351#0 998790351#1 -998790358#17 -998790358#16 -998790358#15 -998790358#14 -998790358#13 -998790358#12 -998790358#11 1121186659 -998790358#10 -1121186660#2 -1121186661 -1121186660#0 998790358#8 -998790358#7 -998790358#6 -998790358#5 -998790358#4 -998790358#3 -998790358#2 -998790358#1 1121186669#0 1121186669#1 1121186669#2 998790352#5 998790353#0 998790353#1 998790353#2 579781482#3 998790352#2 998790352#3 116046167#0 116046167#1 116046167#2 116046167#3 -24583594#3 -24583594#2 -24583594#1 563679836#11 563679836#12 563679836#13 563679836#14 116046167#4 116046167#5 116046167#6 116046167#7 116046167#8 116046167#9 579781481#0 563791811#8 563679820#0 563679820#1 563679820#2 563679820#3 563679820#4 563679820#5 563679820#6 563679820#7 563679820#8 563679820#9 563679820#10 563679820#11 563679820#12 563679820#13 563679820#14 563679820#15 563679820#16 563679820#17 665921722 1312753971#0 1312753971#1 553596950 74851427 164782722 -265975966#5 1312753969#0 1312753969#1 665921720 665921719 665921717 1312753970#0 611866603#0 611866603#1 997761541#0 997761541#1 997761541#2 997761541#3 561672574#0 561672574#1 561672574#2 291266018#0 -291266017#9 -291266017#8 700293876#0 -74851423#7 -74851423#6" /></vehicle><vehicle id="veh22" type="car" depart="220.0"><route edges="-1216791011#1 -1216791011#0 1253476246#0 1253476246#1 1253476247 -1253476245 1216791011#2 686847276#0 1253472523#0 1253472524 1320950715 31058510#1 31058510#2 492439727#0 492439727#1 492439727#2 492439726#0 492439726#1 80926759#0 80926759#1 80926759#2 80926759#3 80926759#4 80926759#5 80926759#6 80926759#7 578543606 730111073#0 730111073#1 730111073#2 446922590#0 446922590#1 24577486#0 24577486#1 24577486#2 24577486#3 24577486#4 23133486#24 23133486#25 23133486#26 23133486#0 23133486#1 23133486#2 23133486#3 23133486#4 23133486#5 23133486#6 23133486#7 23133486#8 23133486#9 -391534135#6" /></vehicle><vehicle id="veh23" type="car" depart="230.0"><route edges="686792710#0 686792710#1 1145143266#1 1145143266#2 1145143266#3 1145143266#4 1145143266#5 1145143266#6 1145143266#7 1145143266#8 1145143266#9 1145143266#10 1145143266#11 1219699881#0 1219699881#1 1219699881#2 1219699881#3 1219699881#4 -1219699879 24583332#13 24583332#14 24583332#15 24583332#16 24583332#17 554665390 570526052 24583320 24584375#0 24584375#1 24584375#2 24584375#3 24584375#4 24584375#5 24584375#6 24584375#7 -24584392#3 -24584392#2" /></vehicle><vehicle id="veh24" type="car" depart="240.0"><route edges="447141153#0 611866595#0 611866595#1 1122257063 611866595#2 611866595#3 24584386 -611866592#2 -611866592#1 -611866592#0 -24584383#3 -24584383#2 24584385#0 24584385#1 24584385#2 80926764#5 80926764#6 717907807#1 717907807#2 717907807#3 717907807#4 717907807#5 717907807#6 24583320 570526051 447141152 570526053 447141150#0 111695525#0 111695525#1 111695525#2 111695525#3 1066625120#0 1066625120#1 1292286060#1 111695524#3 111695524#4 44277690#1 779077038#0 779077038#1 779077038#2 779077038#3 779077038#4 779077038#5 779077038#6 -700305758#0 1145143268#1 31056642#2 31056642#3 31056643#0 80926777#0 80926777#1 700305759#2 -700305759#1 1072933745 700305758#2 700305758#3 80926777#3 -1185908017 235103516#1 -80926770#3 -80926770#2 -80926770#1 -80926770#0 80926777#4 31056643#1 31056643#2 590609996 779129470 80926788#0 -1184932071#3 -1184932071#2 -1184932071#1 695578445 1074546072#0 1074546072#1 1074546073 -1074546074#0 1074546074#1 -169081336#1 -169081336#0 80926788#4 80926788#5 80926788#6 80926788#7 1035988354 31058508#0 31058508#1 31058508#2 31058508#3 -423618444#2 -423618444#1 1072922046#0 1072922046#1 1072922045 -423618444#0 423618440#1 423618440#2 -423618438 -423618440#0 31056646#3 423618426#0 423618425#3 423618425#4 423618425#5 -1072922044#3 423618426#3 -423618426#2 -1072922042#1 423618433#1 423618433#2 423618433#3 169081336#4 169081336#5 1072922044#0 -1253490936#1 -1253490936#0 423618425#1 -423618425#0 169081336#7 31056646#5 31056646#6 31056644#0 -169081337#1 31056644#1 -1185928005#6 -1185928005#5 -1185928005#4 -1185928005#3 -1185928005#2 -1185928005#1 -1185928005#0 169081335#2 -1185928007#3 -1185928007#2 -1185928007#1 -1185928007#0 31058508#4 31058508#5 31056646#1 463699077#0 463699077#1 1331524579#0 1331524579#1 1394089479 1394089480" /></vehicle><vehicle id="veh25" type="car" depart="250.0"><route edges="1000448884#4 164675827#6 164675827#7 80499778#6 562340247#0 562340247#1 562340247#2 562340247#3 562340247#4 562340247#5 562340245 23133709#0 23133709#1 23133709#2 23133709#3 23133709#4 23133709#5 562340241 562340248#0 562340248#1 564223496#0 564223496#1 578543605 564223494#0 564223494#1 564223494#2 564223494#3 554665389#0 554665389#1 554665389#2 125453679#0 125453679#1 125453679#2 -24584373#0 80926759#4 686925959 -38235041#7 -38235041#6 -38235041#5 -38235041#4 -38235041#3 -38235041#2 -360250361 38235351#2 360250362#0" /></vehicle><vehicle id="veh26" type="car" depart="260.0"><route edges="561672574#1 561672574#2 291266018#0 291266018#1 -74851423#9 700293879#1 -1121139432#2 -1121139432#1 -1121139432#0 700293875#2 -1121139430#1 -1121139430#0 700293880#2 553590474#4 553590474#5 553590474#6 -1076510348 -1076510349#1 -1076510349#0 1374634869#0 24582919#0 1153925787#0 1153925787#1 1153925787#2 1153925787#3 1153925787#4 74851423#0 74851423#1 74851423#2 74851423#3 74851423#4 74851423#5 -700293875#0 -291266017#5 -291266017#4 -291266017#3 -291266017#2 -291266017#1 -291266017#0 291266019#1 1312753970#0 1312753970#1 1312753970#2 1312753970#3 523568284#1 523568284#2 523568284#3 -1123316542 997761541#2 997761541#3 997761541#4 997761541#5 997761541#6 997761541#7 997761541#8 997761541#9 24583333#1 74851424#0 74851424#1 -1277942000#8 -1277942000#7 -1277942000#6 -1277942000#5 -1277942000#4 -1277942000#3 -561672577#1 993539158#1 142865883#1 -1121191979#2 -1121191979#1 -1121191979#0 1121191978#0 1277941998#0 1277941998#1 74851429#4 662886376#0 74851429#5 74851429#6 74851429#0 74851429#1 74851429#2 662886372#0 -370765179#4 -370765179#3 -633143618 -553590478#0 553590482#2 291266018#3 553590474#0 553590474#1 553590474#2 553590482#0 -553590478#2 -993539947 -370765179#1 -370765175#1 -700293874#0 553590476#1 -553590476#0 -142865883#3 1277942000#1 142865883#4 142865883#5 142865883#6 142865883#7 142865883#8 553588769#0 142865883#9 142865883#10 -1138292933#1 -1138292933#0 1138292933#2 1138292933#3 1138292933#4 1287065074#0 1287065074#1 1075734524#0 1075734524#1 24583333#6 446922584#0 446922584#1 446922586#0 446922586#1 995113415 570859666#0 570859666#1 570859666#2 446922583#0 446922583#1 722082942 447141131#0 447141131#1 720546573#0 720546573#1 720546573#2 720546573#3 720546573#4 720546573#5 720546573#6 720546573#7 720546573#8 720546573#9 563974732#1 563974732#2 563974735#0 563974735#1 563974735#2 563974735#3 563974735#4 563974735#5 563974735#6 563974735#7 563974735#8 563974735#9 563974735#10 563974733#0 579781481#0 579781481#1 579781481#2 579781481#3 579781481#4 579781481#5 579781481#6 579781481#7 579781481#8 579781481#9 579781481#10 579781481#11 570616027 23133709#0 23133709#1 23133709#2 23133709#3 23133709#4 23133709#5 24577480#0 24577480#1 24577480#2 24577480#3 24577480#4 23133486#9 23133486#10 23133486#11 23133486#12 23133486#13 23133486#14 23133486#15 23133486#16 23133486#17 23133486#18 2