<?xml version="1.0" encoding="UTF-8"?>

<!-- generated on 2025-07-06 14:15:04.445083 by randomTrips.py v1_23_1+0000-676720d13f6
<configuration>
    <net-file value="ch.net.xml"/>
    <output-trip-file value="ch.rou.xml"/>
    <route-file value="ch.trips.xml"/>
    <trip-attributes value="departLane='best' departSpeed='max' departPos='random'"/>
    <vehicle-class value="passenger"/>
    <validate value="True"/>
    <end value="1000.0"/>
</configuration>
-->

<routes xmlns:xsi="http://www.w3.org/2001/XMLSchema-instance" xsi:noNamespaceSchemaLocation="http://sumo.dlr.de/xsd/routes_file.xsd">
    <vType id="passenger" vClass="passenger"/>
    <trip id="0" depart="0.00" from="295636695#0" to="-1070575144#4" departLane='best' departSpeed='max' departPos='random' type="passenger"/>
    <trip id="1" depart="1.00" from="-44923693#3" to="-44141276#0" departLane='best' departSpeed='max' departPos='random' type="passenger"/>
    <trip id="2" depart="2.00" from="44141545#10" to="423608337#0" departLane='best' departSpeed='max' departPos='random' type="passenger"/>
    <trip id="3" depart="3.00" from="776026191#2" to="-169826201" departLane='best' departSpeed='max' departPos='random' type="passenger"/>
    <trip id="4" depart="4.00" from="-82946096#3" to="-1076018284" departLane='best' departSpeed='max' departPos='random' type="passenger"/>
    <trip id="5" depart="5.00" from="-44141125#5" to="1181124061#4" departLane='best' departSpeed='max' departPos='random' type="passenger"/>
    <trip id="6" depart="6.00" from="-1070575144#4" to="-320348721#3" departLane='best' departSpeed='max' departPos='random' type="passenger"/>
    <trip id="7" depart="7.00" from="320348701" to="169826195#0" departLane='best' departSpeed='max' departPos='random' type="passenger"/>
    <trip id="8" depart="8.00" from="-44141146#1" to="264592551#1" departLane='best' departSpeed='max' departPos='random' type="passenger"/>
    <trip id="9" depart="9.00" from="48535261#1" to="-1067871270#1" departLane='best' departSpeed='max' departPos='random' type="passenger"/>
    <trip id="10" depart="10.00" from="48533153#2" to="44141299#8" departLane='best' departSpeed='max' departPos='random' type="passenger"/>
    <trip id="11" depart="11.00" from="-693912721#2" to="-293420636#0" departLane='best' departSpeed='max' departPos='random' type="passenger"/>
    <trip id="12" depart="12.00" from="82710760#0" to="-693912719#6" departLane='best' departSpeed='max' departPos='random' type="passenger"/>
    <trip id="13" depart="13.00" from="-169826196" to="-169826213#1" departLane='best' departSpeed='max' departPos='random' type="passenger"/>
    <trip id="14" depart="14.00" from="693912719#4" to="264615171#1" departLane='best' departSpeed='max' departPos='random' type="passenger"/>
    <trip id="15" depart="15.00" from="48533153#4" to="44141522#3" departLane='best' departSpeed='max' departPos='random' type="passenger"/>
    <trip id="16" depart="16.00" from="1364873700#1" to="82946096#3" departLane='best' departSpeed='max' departPos='random' type="passenger"/>
    <trip id="17" depart="17.00" from="-755795857" to="169826205#6" departLane='best' departSpeed='max' departPos='random' type="passenger"/>
    <trip id="18" depart="18.00" from="658868906#0" to="293420636#0" departLane='best' departSpeed='max' departPos='random' type="passenger"/>
    <trip id="19" depart="19.00" from="696306283#1" to="264592548#11" departLane='best' departSpeed='max' departPos='random' type="passenger"/>
    <trip id="20" depart="20.00" from="44141357#1" to="-1079742369#0" departLane='best' departSpeed='max' departPos='random' type="passenger"/>
    <trip id="21" depart="21.00" from="-44141299#10" to="-48532953#9" departLane='best' departSpeed='max' departPos='random' type="passenger"/>
    <trip id="22" depart="22.00" from="-1364873685#2" to="-44141435#2" departLane='best' departSpeed='max' departPos='random' type="passenger"/>
    <trip id="23" depart="23.00" from="-169826213#1" to="-48532953#0" departLane='best' departSpeed='max' departPos='random' type="passenger"/>
    <trip id="24" depart="24.00" from="293420649#0" to="-755068998#1" departLane='best' departSpeed='max' departPos='random' type="passenger"/>
    <trip id="25" depart="25.00" from="-755069000#2" to="-423608337#0" departLane='best' departSpeed='max' departPos='random' type="passenger"/>
    <trip id="26" depart="26.00" from="-44611072#1" to="80940694#14" departLane='best' departSpeed='max' departPos='random' type="passenger"/>
    <trip id="27" depart="27.00" from="320348696" to="264615172#3" departLane='best' departSpeed='max' departPos='random' type="passenger"/>
    <trip id="28" depart="28.00" from="-293420652" to="44141522#2" departLane='best' departSpeed='max' departPos='random' type="passenger"/>
    <trip id="29" depart="29.00" from="-293420639#3" to="-798631999#1" departLane='best' departSpeed='max' departPos='random' type="passenger"/>
    <trip id="30" depart="30.00" from="82946148#0" to="320348687" departLane='best' departSpeed='max' departPos='random' type="passenger"/>
    <trip id="31" depart="31.00" from="169826220#0" to="44141146#0" departLane='best' departSpeed='max' departPos='random' type="passenger"/>
    <trip id="32" depart="32.00" from="693912717#3" to="48532953#15" departLane='best' departSpeed='max' departPos='random' type="passenger"/>
    <trip id="33" depart="33.00" from="-44141299#2" to="-1076266783#0" departLane='best' departSpeed='max' departPos='random' type="passenger"/>
    <trip id="34" depart="34.00" from="-48533153#3" to="-44830358#6" departLane='best' departSpeed='max' departPos='random' type="passenger"/>
    <trip id="35" depart="35.00" from="-320348726#4" to="80940694#6" departLane='best' departSpeed='max' departPos='random' type="passenger"/>
    <trip id="36" depart="36.00" from="744801990" to="-48535261#1" departLane='best' departSpeed='max' departPos='random' type="passenger"/>
    <trip id="37" depart="37.00" from="320348716#0" to="-798855530" departLane='best' departSpeed='max' departPos='random' type="passenger"/>
    <trip id="38" depart="38.00" from="798631998" to="1070575144#0" departLane='best' departSpeed='max' departPos='random' type="passenger"/>
    <trip id="39" depart="39.00" from="-44610937#2" to="-44141529#0" departLane='best' departSpeed='max' departPos='random' type="passenger"/>
    <trip id="40" depart="40.00" from="169826224" to="-44610937#2" departLane='best' departSpeed='max' departPos='random' type="passenger"/>
    <trip id="41" depart="41.00" from="264592548#18" to="77617199#1" departLane='best' departSpeed='max' departPos='random' type="passenger"/>
    <trip id="42" depart="42.00" from="-798855529#3" to="-44141146#4" departLane='best' departSpeed='max' departPos='random' type="passenger"/>
    <trip id="43" depart="43.00" from="991702391#3" to="1184991409#0" departLane='best' departSpeed='max' departPos='random' type="passenger"/>
    <trip id="44" depart="44.00" from="-1377217246#4" to="-1079742369#2" departLane='best' departSpeed='max' departPos='random' type="passenger"/>
    <trip id="45" depart="45.00" from="-169826228#4" to="293420644" departLane='best' departSpeed='max' departPos='random' type="passenger"/>
    <trip id="46" depart="46.00" from="48533130" to="-82946112" departLane='best' departSpeed='max' departPos='random' type="passenger"/>
    <trip id="47" depart="47.00" from="-1184991409#1" to="-798632020" departLane='best' departSpeed='max' departPos='random' type="passenger"/>
    <trip id="48" depart="48.00" from="991702391#1" to="1362943969#0" departLane='best' departSpeed='max' departPos='random' type="passenger"/>
    <trip id="49" depart="49.00" from="82946096#0" to="720102664#0" departLane='best' departSpeed='max' departPos='random' type="passenger"/>
    <trip id="50" depart="50.00" from="-1069870998" to="44141502#4" departLane='best' departSpeed='max' departPos='random' type="passenger"/>
    <trip id="51" depart="51.00" from="423608337#1" to="1364873700#1" departLane='best' departSpeed='max' departPos='random' type="passenger"/>
    <trip id="52" depart="52.00" from="-44611072#1" to="320348688" departLane='best' departSpeed='max' departPos='random' type="passenger"/>
    <trip id="53" depart="53.00" from="-170062861" to="-82946148#4" departLane='best' departSpeed='max' departPos='random' type="passenger"/>
    <trip id="54" depart="54.00" from="1070560846" to="80940712" departLane='best' departSpeed='max' departPos='random' type="passenger"/>
    <trip id="55" depart="55.00" from="744801990" to="-44610966" departLane='best' departSpeed='max' departPos='random' type="passenger"/>
    <trip id="56" depart="56.00" from="1128268559" to="-320348692" departLane='best' departSpeed='max' departPos='random' type="passenger"/>
    <trip id="57" depart="57.00" from="77617256#1" to="744801990" departLane='best' departSpeed='max' departPos='random' type="passenger"/>
    <trip id="58" depart="58.00" from="-48533128#2" to="320348678#4" departLane='best' departSpeed='max' departPos='random' type="passenger"/>
    <trip id="59" depart="59.00" from="264615171#3" to="-267447983#2" departLane='best' departSpeed='max' departPos='random' type="passenger"/>
    <trip id="60" depart="60.00" from="48532953#2" to="1362943969#2" departLane='best' departSpeed='max' departPos='random' type="passenger"/>
    <trip id="61" depart="61.00" from="-1041351321#0" to="-681792944#3" departLane='best' departSpeed='max' departPos='random' type="passenger"/>
    <trip id="62" depart="62.00" from="-1070560848#5" to="798855529#3" departLane='best' departSpeed='max' departPos='random' type="passenger"/>
    <trip id="63" depart="63.00" from="755068998#0" to="681792944#2" departLane='best' departSpeed='max' departPos='random' type="passenger"/>
    <trip id="64" depart="64.00" from="-48533136#1" to="-1184991409#1" departLane='best' departSpeed='max' departPos='random' type="passenger"/>
    <trip id="65" depart="65.00" from="755068997" to="80940711#1" departLane='best' departSpeed='max' departPos='random' type="passenger"/>
    <trip id="66" depart="66.00" from="-1377215179#0" to="1079742367#0" departLane='best' departSpeed='max' departPos='random' type="passenger"/>
    <trip id="67" depart="67.00" from="-1186764830" to="44830361#3" departLane='best' departSpeed='max' departPos='random' type="passenger"/>
    <trip id="68" depart="68.00" from="44923693#3" to="-264592548#21" departLane='best' departSpeed='max' departPos='random' type="passenger"/>
    <trip id="69" depart="69.00" from="1076314748" to="169826205#3" departLane='best' departSpeed='max' departPos='random' type="passenger"/>
    <trip id="70" depart="70.00" from="-44610937#2" to="755068996" departLane='best' departSpeed='max' departPos='random' type="passenger"/>
    <trip id="71" depart="71.00" from="-82946100#0" to="-423608341" departLane='best' departSpeed='max' departPos='random' type="passenger"/>
    <trip id="72" depart="72.00" from="1377217246#1" to="44141522#3" departLane='best' departSpeed='max' departPos='random' type="passenger"/>
    <trip id="73" depart="73.00" from="-320348721#3" to="-48533153#3" departLane='best' departSpeed='max' departPos='random' type="passenger"/>
    <trip id="74" depart="74.00" from="991702391#0" to="320348713#1" departLane='best' departSpeed='max' departPos='random' type="passenger"/>
    <trip id="75" depart="75.00" from="-82946148#0" to="127661012#10" departLane='best' departSpeed='max' departPos='random' type="passenger"/>
    <trip id="76" depart="76.00" from="-260320118" to="-44141299#1" departLane='best' departSpeed='max' departPos='random' type="passenger"/>
    <trip id="77" depart="77.00" from="-693912719#6" to="264592551#0" departLane='best' departSpeed='max' departPos='random' type="passenger"/>
    <trip id="78" depart="78.00" from="-44141299#4" to="-44141146#6" departLane='best' departSpeed='max' departPos='random' type="passenger"/>
    <trip id="79" depart="79.00" from="-127661018#0" to="293420649#1" departLane='best' departSpeed='max' departPos='random' type="passenger"/>
    <trip id="80" depart="80.00" from="-44141299#2" to="77617205#7" departLane='best' departSpeed='max' departPos='random' type="passenger"/>
    <trip id="81" depart="81.00" from="696306282#0" to="-1364873685#0" departLane='best' departSpeed='max' departPos='random' type="passenger"/>
    <trip id="82" depart="82.00" from="-44141435#5" to="320348726#0" departLane='best' departSpeed='max' departPos='random' type="passenger"/>
    <trip id="83" depart="83.00" from="-423608341" to="-264592548#8" departLane='best' departSpeed='max' departPos='random' type="passenger"/>
    <trip id="84" depart="84.00" from="80940694#0" to="253134120#2" departLane='best' departSpeed='max' departPos='random' type="passenger"/>
    <trip id="85" depart="85.00" from="1076266783#0" to="48533127#0" departLane='best' departSpeed='max' departPos='random' type="passenger"/>
    <trip id="86" depart="86.00" from="48533153#4" to="-320348717#10" departLane='best' departSpeed='max' departPos='random' type="passenger"/>
    <trip id="87" depart="87.00" from="-169826205#3" to="-82946139#1" departLane='best' departSpeed='max' departPos='random' type="passenger"/>
    <trip id="88" depart="88.00" from="-82946100#1" to="1076057774" departLane='best' departSpeed='max' departPos='random' type="passenger"/>
    <trip id="89" depart="89.00" from="44141517#2" to="360271994#0" departLane='best' departSpeed='max' departPos='random' type="passenger"/>
    <trip id="90" depart="90.00" from="82946119#4" to="-169826220#0" departLane='best' departSpeed='max' departPos='random' type="passenger"/>
    <trip id="91" depart="91.00" from="-798855531#2" to="-693912721#0" departLane='best' departSpeed='max' departPos='random' type="passenger"/>
    <trip id="92" depart="92.00" from="696306283#1" to="-44141545#10" departLane='best' departSpeed='max' departPos='random' type="passenger"/>
    <trip id="93" depart="93.00" from="-320348716#1" to="1070560845#0" departLane='best' departSpeed='max' departPos='random' type="passenger"/>
    <trip id="94" depart="94.00" from="-82946096#3" to="-48532953#1" departLane='best' departSpeed='max' departPos='random' type="passenger"/>
    <trip id="95" depart="95.00" from="-44141529#1" to="798855524#2" departLane='best' departSpeed='max' departPos='random' type="passenger"/>
    <trip id="96" depart="96.00" from="1041351325" to="720102664#1" departLane='best' departSpeed='max' departPos='random' type="passenger"/>
    <trip id="97" depart="97.00" from="169826205#4" to="-1080170955" departLane='best' departSpeed='max' departPos='random' type="passenger"/>
    <trip id="98" depart="98.00" from="991702391#6" to="693912717#0" departLane='best' departSpeed='max' departPos='random' type="passenger"/>
    <trip id="99" depart="99.00" from="82710788#0" to="798855528" departLane='best' departSpeed='max' departPos='random' type="passenger"/>
    <trip id="100" depart="100.00" from="693912719#6" to="-293420647" departLane='best' departSpeed='max' departPos='random' type="passenger"/>
    <trip id="101" depart="101.00" from="1077916787" to="-44141125#2" departLane='best' departSpeed='max' departPos='random' type="passenger"/>
    <trip id="102" depart="102.00" from="-798855531#0" to="-1184991409#2" departLane='best' departSpeed='max' departPos='random' type="passenger"/>
    <trip id="103" depart="103.00" from="-755795857" to="82946131#0" departLane='best' departSpeed='max' departPos='random' type="passenger"/>
    <trip id="104" depart="104.00" from="-44610937#2" to="48533126" departLane='best' departSpeed='max' departPos='random' type="passenger"/>
    <trip id="105" depart="105.00" from="1070560847" to="-82946116" departLane='best' departSpeed='max' departPos='random' type="passenger"/>
    <trip id="106" depart="106.00" from="82710760#0" to="991702391#0" departLane='best' departSpeed='max' departPos='random' type="passenger"/>
    <trip id="107" depart="107.00" from="169826213#1" to="44141502#0" departLane='best' departSpeed='max' departPos='random' type="passenger"/>
    <trip id="108" depart="108.00" from="-267447983#2" to="-48533129#1" departLane='best' departSpeed='max' departPos='random' type="passenger"/>
    <trip id="109" depart="109.00" from="82710788#0" to="264592548#14" departLane='best' departSpeed='max' departPos='random' type="passenger"/>
    <trip id="110" depart="110.00" from="145411832" to="44610966" departLane='best' departSpeed='max' departPos='random' type="passenger"/>
    <trip id="111" depart="111.00" from="-1127663270#1" to="264592548#21" departLane='best' departSpeed='max' departPos='random' type="passenger"/>
    <trip id="112" depart="112.00" from="1150383464" to="696306281" departLane='best' departSpeed='max' departPos='random' type="passenger"/>
    <trip id="113" depart="113.00" from="-267447983#5" to="82710760#5" departLane='best' departSpeed='max' departPos='random' type="passenger"/>
    <trip id="114" depart="114.00" from="-1364873685#4" to="-320348713#0" departLane='best' departSpeed='max' departPos='random' type="passenger"/>
    <trip id="115" depart="115.00" from="264592551#3" to="360271994#3" departLane='best' departSpeed='max' departPos='random' type="passenger"/>
    <trip id="116" depart="116.00" from="-44141435#2" to="-260320120" departLane='best' departSpeed='max' departPos='random' type="passenger"/>
    <trip id="117" depart="117.00" from="776026191#0" to="-44141517#5" departLane='best' departSpeed='max' departPos='random' type="passenger"/>
    <trip id="118" depart="118.00" from="264592551#2" to="293420636#1" departLane='best' departSpeed='max' departPos='random' type="passenger"/>
    <trip id="119" depart="119.00" from="-82946096#0" to="264592548#20" departLane='best' departSpeed='max' departPos='random' type="passenger"/>
    <trip id="120" depart="120.00" from="127661012#9" to="80940694#11" departLane='best' departSpeed='max' departPos='random' type="passenger"/>
    <trip id="121" depart="121.00" from="-320348724#4" to="44141435#5" departLane='best' departSpeed='max' departPos='random' type="passenger"/>
    <trip id="122" depart="122.00" from="-44141435#6" to="-798855530" departLane='best' departSpeed='max' departPos='random' type="passenger"/>
    <trip id="123" depart="123.00" from="320348725#1" to="-48533133" departLane='best' departSpeed='max' departPos='random' type="passenger"/>
    <trip id="124" depart="124.00" from="-48533153#4" to="44830355#5" departLane='best' departSpeed='max' departPos='random' type="passenger"/>
    <trip id="125" depart="125.00" from="-1360335948#0" to="1070560849#3" departLane='best' departSpeed='max' departPos='random' type="passenger"/>
    <trip id="126" depart="126.00" from="991702391#4" to="991702391#1" departLane='best' departSpeed='max' departPos='random' type="passenger"/>
    <trip id="127" depart="127.00" from="-1360335948#1" to="-44141125#0" departLane='best' departSpeed='max' departPos='random' type="passenger"/>
    <trip id="128" depart="128.00" from="-44610937#2" to="80940694#0" departLane='best' departSpeed='max' departPos='random' type="passenger"/>
    <trip id="129" depart="129.00" from="755068998#2" to="755069000#2" departLane='best' departSpeed='max' departPos='random' type="passenger"/>
    <trip id="130" depart="130.00" from="-755069000#1" to="-293420639#0" departLane='best' departSpeed='max' departPos='random' type="passenger"/>
    <trip id="131" depart="131.00" from="681792944#0" to="44141357#13" departLane='best' departSpeed='max' departPos='random' type="passenger"/>
    <trip id="132" depart="132.00" from="264615172#1" to="82946139#0" departLane='best' departSpeed='max' departPos='random' type="passenger"/>
    <trip id="133" depart="133.00" from="320348713#0" to="-1067871271#1" departLane='best' departSpeed='max' departPos='random' type="passenger"/>
    <trip id="134" depart="134.00" from="604050024#4" to="-48533132" departLane='best' departSpeed='max' departPos='random' type="passenger"/>
    <trip id="135" depart="135.00" from="320348718#1" to="80940694#17" departLane='best' departSpeed='max' departPos='random' type="passenger"/>
    <trip id="136" depart="136.00" from="-264592548#8" to="-253134120#2" departLane='best' departSpeed='max' departPos='random' type="passenger"/>
    <trip id="137" depart="137.00" from="-169826228#0" to="169826212#1" departLane='best' departSpeed='max' departPos='random' type="passenger"/>
    <trip id="138" depart="138.00" from="-44923693#0" to="264615171#3" departLane='best' departSpeed='max' departPos='random' type="passenger"/>
    <trip id="139" depart="139.00" from="44141435#2" to="-320348725#0" departLane='best' departSpeed='max' departPos='random' type="passenger"/>
    <trip id="140" depart="140.00" from="293420647" to="-44830358#1" departLane='best' departSpeed='max' departPos='random' type="passenger"/>
    <trip id="141" depart="141.00" from="1079742367#0" to="77617205#7" departLane='best' departSpeed='max' departPos='random' type="passenger"/>
    <trip id="142" depart="142.00" from="693912719#1" to="-169826205#5" departLane='best' departSpeed='max' departPos='random' type="passenger"/>
    <trip id="143" depart="143.00" from="-82946100#1" to="-44923698#4" departLane='best' departSpeed='max' departPos='random' type="passenger"/>
    <trip id="144" depart="144.00" from="-1041351325" to="48532953#1" departLane='best' departSpeed='max' departPos='random' type="passenger"/>
    <trip id="145" depart="145.00" from="293420650" to="-44610937#1" departLane='best' departSpeed='max' departPos='random' type="passenger"/>
    <trip id="146" depart="146.00" from="44141545#17" to="169826205#5" departLane='best' departSpeed='max' departPos='random' type="passenger"/>
    <trip id="147" depart="147.00" from="-82946112" to="-1069870997#0" departLane='best' departSpeed='max' departPos='random' type="passenger"/>
    <trip id="148" depart="148.00" from="-1362943956#1" to="755793905" departLane='best' departSpeed='max' departPos='random' type="passenger"/>
    <trip id="149" depart="149.00" from="77617199#6" to="169826195#1" departLane='best' departSpeed='max' departPos='random' type="passenger"/>
    <trip id="150" depart="150.00" from="681792944#1" to="264592548#2" departLane='best' departSpeed='max' departPos='random' type="passenger"/>
    <trip id="151" depart="151.00" from="-264599028#0" to="-264592548#2" departLane='best' departSpeed='max' departPos='random' type="passenger"/>
    <trip id="152" depart="152.00" from="-48533137#0" to="77617199#3" departLane='best' departSpeed='max' departPos='random' type="passenger"/>
    <trip id="153" depart="153.00" from="48533134#1" to="720102664#0" departLane='best' departSpeed='max' departPos='random' type="passenger"/>
    <trip id="154" depart="154.00" from="77617191#1" to="-423608337#1" departLane='best' departSpeed='max' departPos='random' type="passenger"/>
    <trip id="155" depart="155.00" from="-44141529#1" to="-169826226" departLane='best' departSpeed='max' departPos='random' type="passenger"/>
    <trip id="156" depart="156.00" from="48532953#4" to="755793906#2" departLane='best' departSpeed='max' departPos='random' type="passenger"/>
    <trip id="157" depart="157.00" from="-82710760#2" to="293420636#2" departLane='best' departSpeed='max' departPos='random' type="passenger"/>
    <trip id="158" depart="158.00" from="-267447983#2" to="798855531#0" departLane='best' departSpeed='max' departPos='random' type="passenger"/>
    <trip id="159" depart="159.00" from="720102663#0" to="82946100#2" departLane='best' departSpeed='max' departPos='random' type="passenger"/>
    <trip id="160" depart="160.00" from="48535261#2" to="755793903" departLane='best' departSpeed='max' departPos='random' type="passenger"/>
    <trip id="161" depart="161.00" from="-1070575144#1" to="44141545#17" departLane='best' departSpeed='max' departPos='random' type="passenger"/>
    <trip id="162" depart="162.00" from="-693912717#2" to="798855531#1" departLane='best' departSpeed='max' departPos='random' type="passenger"/>
    <trip id="163" depart="163.00" from="48533138" to="721594685#0" departLane='best' departSpeed='max' departPos='random' type="passenger"/>
    <trip id="164" depart="164.00" from="48535261#2" to="-44830358#4" departLane='best' departSpeed='max' departPos='random' type="passenger"/>
    <trip id="165" depart="165.00" from="48533127#0" to="-169826232" departLane='best' departSpeed='max' departPos='random' type="passenger"/>
    <trip id="166" depart="166.00" from="726131920#2" to="720102662" departLane='best' departSpeed='max' departPos='random' type="passenger"/>
    <trip id="167" depart="167.00" from="-44141146#5" to="604050026#0-AddedOnRampEdge" departLane='best' departSpeed='max' departPos='random' type="passenger"/>
    <trip id="168" depart="168.00" from="1070560849#0" to="-48533137#0" departLane='best' departSpeed='max' departPos='random' type="passenger"/>
    <trip id="169" depart="169.00" from="48533134#0" to="-44141299#4" departLane='best' departSpeed='max' departPos='random' type="passenger"/>
    <trip id="170" depart="170.00" from="-1070575144#0" to="-320348717#7" departLane='best' departSpeed='max' departPos='random' type="passenger"/>
    <trip id="171" depart="171.00" from="-681794383#1" to="721594685#1" departLane='best' departSpeed='max' departPos='random' type="passenger"/>
    <trip id="172" depart="172.00" from="82710787#5" to="-48532953#10" departLane='best' departSpeed='max' departPos='random' type="passenger"/>
    <trip id="173" depart="173.00" from="320348678#0" to="-80940712" departLane='best' departSpeed='max' departPos='random' type="passenger"/>
    <trip id="174" depart="174.00" from="82946119#0" to="1364873685#8" departLane='best' departSpeed='max' departPos='random' type="passenger"/>
    <trip id="175" depart="175.00" from="80940694#14" to="-253134120#0" departLane='best' departSpeed='max' departPos='random' type="passenger"/>
    <trip id="176" depart="176.00" from="82710788#2" to="-320348692" departLane='best' departSpeed='max' departPos='random' type="passenger"/>
    <trip id="177" depart="177.00" from="82710780#0" to="-44830358#3" departLane='best' departSpeed='max' departPos='random' type="passenger"/>
    <trip id="178" depart="178.00" from="-169826228#1" to="-82946148#4" departLane='best' departSpeed='max' departPos='random' type="passenger"/>
    <trip id="179" depart="179.00" from="44141517#1" to="-48535030" departLane='best' departSpeed='max' departPos='random' type="passenger"/>
    <trip id="180" depart="180.00" from="264599028#3" to="1184991595#0" departLane='best' departSpeed='max' departPos='random' type="passenger"/>
    <trip id="181" depart="181.00" from="-798632001#1" to="264592548#10" departLane='best' departSpeed='max' departPos='random' type="passenger"/>
    <trip id="182" depart="182.00" from="-44141545#17" to="44141357#3" departLane='best' departSpeed='max' departPos='random' type="passenger"/>
    <trip id="183" depart="183.00" from="-1041351322#1" to="798855527" departLane='best' departSpeed='max' departPos='random' type="passenger"/>
    <trip id="184" depart="184.00" from="1377217246#0" to="44141502#1" departLane='best' departSpeed='max' departPos='random' type="passenger"/>
    <trip id="185" depart="185.00" from="44141545#18" to="320348726#2" departLane='best' departSpeed='max' departPos='random' type="passenger"/>
    <trip id="186" depart="186.00" from="-755068997" to="-1362943969#2" departLane='best' departSpeed='max' departPos='random' type="passenger"/>
    <trip id="187" depart="187.00" from="320348721#0" to="-693912717#2" departLane='best' departSpeed='max' departPos='random' type="passenger"/>
    <trip id="188" depart="188.00" from="-48533153#1" to="693912723#1" departLane='best' departSpeed='max' departPos='random' type="passenger"/>
    <trip id="189" depart="189.00" from="44141435#5" to="-48533134#0" departLane='best' departSpeed='max' departPos='random' type="passenger"/>
    <trip id="190" depart="190.00" from="-48533137#1" to="-82710787#1" departLane='best' departSpeed='max' departPos='random' type="passenger"/>
    <trip id="191" depart="191.00" from="-798855531#1" to="-48533129#0" departLane='best' departSpeed='max' departPos='random' type="passenger"/>
    <trip id="192" depart="192.00" from="-264592548#17" to="-82946100#4" departLane='best' departSpeed='max' departPos='random' type="passenger"/>
    <trip id="193" depart="193.00" from="80940694#15" to="423608337#1" departLane='best' departSpeed='max' departPos='random' type="passenger"/>
    <trip id="194" depart="194.00" from="77617199#5" to="267447983#4" departLane='best' departSpeed='max' departPos='random' type="passenger"/>
    <trip id="195" depart="195.00" from="-48533130" to="169826205#0" departLane='best' departSpeed='max' departPos='random' type="passenger"/>
    <trip id="196" depart="196.00" from="-1041351321#0" to="-48532953#6" departLane='best' departSpeed='max' departPos='random' type="passenger"/>
    <trip id="197" depart="197.00" from="-82946119#1" to="264592548#17" departLane='best' departSpeed='max' departPos='random' type="passenger"/>
    <trip id="198" depart="198.00" from="320348713#1" to="1070593584#1" departLane='best' departSpeed='max' departPos='random' type="passenger"/>
    <trip id="199" depart="199.00" from="1041351321#1" to="-44141125#2" departLane='best' departSpeed='max' departPos='random' type="passenger"/>
    <trip id="200" depart="200.00" from="1076266783#0" to="77617199#5" departLane='best' departSpeed='max' departPos='random' type="passenger"/>
    <trip id="201" depart="201.00" from="48533134#1" to="-293420656#0" departLane='best' departSpeed='max' departPos='random' type="passenger"/>
    <trip id="202" depart="202.00" from="-1377214229" to="1186764830" departLane='best' departSpeed='max' departPos='random' type="passenger"/>
    <trip id="203" depart="203.00" from="293420646#0" to="-693912719#4" departLane='best' departSpeed='max' departPos='random' type="passenger"/>