<?xml version="1.0" encoding="UTF-8"?>

<!-- generated on 2025-07-06 13:39:03.835641 by randomTrips.py v1_23_1+0000-676720d13f6
<configuration>
    <net-file value="cp.net.xml"/>
    <output-trip-file value="cp.rou.xml"/>
    <route-file value="cp.trips.xml"/>
    <trip-attributes value="departLane='best' departSpeed='max' departPos='random'"/>
    <vehicle-class value="passenger"/>
    <validate value="True"/>
    <end value="1000.0"/>
</configuration>
-->

<routes xmlns:xsi="http://www.w3.org/2001/XMLSchema-instance" xsi:noNamespaceSchemaLocation="http://sumo.dlr.de/xsd/routes_file.xsd">
    <vType id="passenger" vClass="passenger"/>
    <trip id="0" depart="0.00" from="24584375#3" to="-1076782193#0" departLane='best' departSpeed='max' departPos='random' type="passenger"/>
    <trip id="1" depart="1.00" from="-562499724#6" to="-38235289#0" departLane='best' departSpeed='max' departPos='random' type="passenger"/>
    <trip id="2" depart="2.00" from="423618426#0" to="291266019#0" departLane='best' departSpeed='max' departPos='random' type="passenger"/>
    <trip id="3" depart="3.00" from="717454375#0" to="-1327819722" departLane='best' departSpeed='max' departPos='random' type="passenger"/>
    <trip id="4" depart="4.00" from="1122030697#1" to="-1121139429#1" departLane='best' departSpeed='max' departPos='random' type="passenger"/>
    <trip id="5" depart="5.00" from="-311994765#1" to="1394089479" departLane='best' departSpeed='max' departPos='random' type="passenger"/>
    <trip id="6" depart="6.00" from="-1076782194#0" to="-293153159#0" departLane='best' departSpeed='max' departPos='random' type="passenger"/>
    <trip id="7" depart="7.00" from="24584381#5" to="235103445#0" departLane='best' departSpeed='max' departPos='random' type="passenger"/>
    <trip id="8" depart="8.00" from="-319329101#4" to="24583330#8" departLane='best' departSpeed='max' departPos='random' type="passenger"/>
    <trip id="9" depart="9.00" from="579781481#2" to="-1072914440#1" departLane='best' departSpeed='max' departPos='random' type="passenger"/>
    <trip id="10" depart="10.00" from="577982260#6" to="360250362#0" departLane='best' departSpeed='max' departPos='random' type="passenger"/>
    <trip id="11" depart="11.00" from="-779077038#4" to="-24583590#2" departLane='best' departSpeed='max' departPos='random' type="passenger"/>
    <trip id="12" depart="12.00" from="80926788#1" to="-83675250#0" departLane='best' departSpeed='max' departPos='random' type="passenger"/>
    <trip id="13" depart="13.00" from="-1255913760#0" to="-142865883#9" departLane='best' departSpeed='max' departPos='random' type="passenger"/>
    <trip id="14" depart="14.00" from="656933877#7" to="24583488#0" departLane='best' departSpeed='max' departPos='random' type="passenger"/>
    <trip id="15" depart="15.00" from="578543603#3" to="423563749#1" departLane='best' departSpeed='max' departPos='random' type="passenger"/>
    <trip id="16" depart="16.00" from="169081336#4" to="995793692#4" departLane='best' departSpeed='max' departPos='random' type="passenger"/>
    <trip id="17" depart="17.00" from="1040444893#0" to="24577096#4" departLane='best' departSpeed='max' departPos='random' type="passenger"/>
    <trip id="18" depart="18.00" from="611866603#2" to="24583587#3" departLane='best' departSpeed='max' departPos='random' type="passenger"/>
    <trip id="19" depart="19.00" from="686792699#0" to="24582919#4" departLane='best' departSpeed='max' departPos='random' type="passenger"/>
    <trip id="20" depart="20.00" from="370672194#12" to="-1122215530" departLane='best' departSpeed='max' departPos='random' type="passenger"/>
    <trip id="21" depart="21.00" from="-370672194#6" to="-700293876#0" departLane='best' departSpeed='max' departPos='random' type="passenger"/>
    <trip id="22" depart="22.00" from="-1185928006#0" to="-423553702#1" departLane='best' departSpeed='max' departPos='random' type="passenger"/>
    <trip id="23" depart="23.00" from="-1306164414" to="-686792698#2" departLane='best' departSpeed='max' departPos='random' type="passenger"/>
    <trip id="24" depart="24.00" from="24584373#8" to="1066619121#1" departLane='best' departSpeed='max' departPos='random' type="passenger"/>
    <trip id="25" depart="25.00" from="-998790358#15" to="-360250362#3" departLane='best' departSpeed='max' departPos='random' type="passenger"/>
    <trip id="26" depart="26.00" from="-553590478#2" to="80418094#0" departLane='best' departSpeed='max' departPos='random' type="passenger"/>
    <trip id="27" depart="27.00" from="24584380#2" to="24583489#5" departLane='best' departSpeed='max' departPos='random' type="passenger"/>
    <trip id="28" depart="28.00" from="-24583592#1" to="423553702#1" departLane='best' departSpeed='max' departPos='random' type="passenger"/>
    <trip id="29" depart="29.00" from="-24583495#2" to="1072967425#1" departLane='best' departSpeed='max' departPos='random' type="passenger"/>
    <trip id="30" depart="30.00" from="998790354#7" to="24584377#3" departLane='best' departSpeed='max' departPos='random' type="passenger"/>
    <trip id="31" depart="31.00" from="24577106#1" to="31056644#0" departLane='best' departSpeed='max' departPos='random' type="passenger"/>
    <trip id="32" depart="32.00" from="656933877#0" to="563679820#3" departLane='best' departSpeed='max' departPos='random' type="passenger"/>
    <trip id="33" depart="33.00" from="-370672197#1" to="-1121142413#0" departLane='best' departSpeed='max' departPos='random' type="passenger"/>
    <trip id="34" depart="34.00" from="-712992080#2" to="-612734125" departLane='best' departSpeed='max' departPos='random' type="passenger"/>
    <trip id="35" depart="35.00" from="-293153141#1" to="80418139#1" departLane='best' departSpeed='max' departPos='random' type="passenger"/>
    <trip id="36" depart="36.00" from="700293880#1" to="-750482273#1" departLane='best' departSpeed='max' departPos='random' type="passenger"/>
    <trip id="37" depart="37.00" from="24584390#1" to="1076827648" departLane='best' departSpeed='max' departPos='random' type="passenger"/>
    <trip id="38" depart="38.00" from="74851424#0" to="1219699876#3" departLane='best' departSpeed='max' departPos='random' type="passenger"/>
    <trip id="39" depart="39.00" from="-553590474#3" to="-484725394" departLane='best' departSpeed='max' departPos='random' type="passenger"/>
    <trip id="40" depart="40.00" from="24577120" to="-577982260#5" departLane='best' departSpeed='max' departPos='random' type="passenger"/>
    <trip id="41" depart="41.00" from="24583321#0" to="717512502#0" departLane='best' departSpeed='max' departPos='random' type="passenger"/>
    <trip id="42" depart="42.00" from="1074764284#1" to="-371342951#2" departLane='best' departSpeed='max' departPos='random' type="passenger"/>
    <trip id="43" depart="43.00" from="998790358#4" to="154090267#0" departLane='best' departSpeed='max' departPos='random' type="passenger"/>
    <trip id="44" depart="44.00" from="-1253487631#1" to="-1122215532#1" departLane='best' departSpeed='max' departPos='random' type="passenger"/>
    <trip id="45" depart="45.00" from="-142865883#2" to="24583596#1" departLane='best' departSpeed='max' departPos='random' type="passenger"/>
    <trip id="46" depart="46.00" from="563974730#2" to="1122220362#0" departLane='best' departSpeed='max' departPos='random' type="passenger"/>
    <trip id="47" depart="47.00" from="-1123316542" to="1074546073" departLane='best' departSpeed='max' departPos='random' type="passenger"/>
    <trip id="48" depart="48.00" from="998790358#17" to="164786644#0" departLane='best' departSpeed='max' departPos='random' type="passenger"/>
    <trip id="49" depart="49.00" from="995792406#7" to="686792700#0" departLane='best' departSpeed='max' departPos='random' type="passenger"/>
    <trip id="50" depart="50.00" from="-1072922042#2" to="38699586#0" departLane='best' departSpeed='max' departPos='random' type="passenger"/>
    <trip id="51" depart="51.00" from="293153145#1" to="223906999#0" departLane='best' departSpeed='max' departPos='random' type="passenger"/>
    <trip id="52" depart="52.00" from="-553590478#1" to="24584377#6" departLane='best' departSpeed='max' departPos='random' type="passenger"/>
    <trip id="53" depart="53.00" from="-142865883#8" to="1144624114#0" departLane='best' departSpeed='max' departPos='random' type="passenger"/>
    <trip id="54" depart="54.00" from="1184932071#0" to="80926770#1" departLane='best' departSpeed='max' departPos='random' type="passenger"/>
    <trip id="55" depart="55.00" from="700293879#2" to="-582759331#0" departLane='best' departSpeed='max' departPos='random' type="passenger"/>
    <trip id="56" depart="56.00" from="1374632732" to="-24584410" departLane='best' departSpeed='max' departPos='random' type="passenger"/>
    <trip id="57" depart="57.00" from="74851423#4" to="700293874#0" departLane='best' departSpeed='max' departPos='random' type="passenger"/>
    <trip id="58" depart="58.00" from="-686792709#1" to="24584377#0" departLane='best' departSpeed='max' departPos='random' type="passenger"/>
    <trip id="59" depart="59.00" from="24583488#7" to="-24583586#1" departLane='best' departSpeed='max' departPos='random' type="passenger"/>
    <trip id="60" depart="60.00" from="553590474#4" to="23133600#14" departLane='best' departSpeed='max' departPos='random' type="passenger"/>
    <trip id="61" depart="61.00" from="563679820#14" to="164786644#4" departLane='best' departSpeed='max' departPos='random' type="passenger"/>
    <trip id="62" depart="62.00" from="-103176785#1" to="-80418093#0" departLane='best' departSpeed='max' departPos='random' type="passenger"/>
    <trip id="63" depart="63.00" from="-1074774611" to="778199266#0" departLane='best' departSpeed='max' departPos='random' type="passenger"/>
    <trip id="64" depart="64.00" from="700305760#0" to="612734126#1" departLane='best' departSpeed='max' departPos='random' type="passenger"/>
    <trip id="65" depart="65.00" from="-700293879#0" to="-1144624114#0" departLane='best' departSpeed='max' departPos='random' type="passenger"/>
    <trip id="66" depart="66.00" from="700305759#0" to="80499778#2" departLane='best' departSpeed='max' departPos='random' type="passenger"/>
    <trip id="67" depart="67.00" from="-1145143266#1" to="553590478#1" departLane='best' departSpeed='max' departPos='random' type="passenger"/>
    <trip id="68" depart="68.00" from="553596950" to="-24577361#8" departLane='best' departSpeed='max' departPos='random' type="passenger"/>
    <trip id="69" depart="69.00" from="1253490936#0" to="24577096#10" departLane='best' departSpeed='max' departPos='random' type="passenger"/>
    <trip id="70" depart="70.00" from="-553590474#4" to="700293876#1" departLane='best' departSpeed='max' departPos='random' type="passenger"/>
    <trip id="71" depart="71.00" from="1122030698#0" to="-370672194#14" departLane='best' departSpeed='max' departPos='random' type="passenger"/>
    <trip id="72" depart="72.00" from="23133600#0" to="423563749#1" departLane='best' departSpeed='max' departPos='random' type="passenger"/>
    <trip id="73" depart="73.00" from="-267447262#2" to="-74851423#1" departLane='best' departSpeed='max' departPos='random' type="passenger"/>
    <trip id="74" depart="74.00" from="998790358#14" to="24584384#3" departLane='best' departSpeed='max' departPos='random' type="passenger"/>
    <trip id="75" depart="75.00" from="1123526751" to="164675827#4" departLane='best' departSpeed='max' departPos='random' type="passenger"/>
    <trip id="76" depart="76.00" from="-164698290#1" to="-38235302#2" departLane='best' departSpeed='max' departPos='random' type="passenger"/>
    <trip id="77" depart="77.00" from="-775258786#2" to="24583330#5" departLane='best' departSpeed='max' departPos='random' type="passenger"/>
    <trip id="78" depart="78.00" from="-370672197#4" to="-371342951#4" departLane='best' departSpeed='max' departPos='random' type="passenger"/>
    <trip id="79" depart="79.00" from="-1145143266#7" to="24584373#2" departLane='best' departSpeed='max' departPos='random' type="passenger"/>
    <trip id="80" depart="80.00" from="-370672197#0" to="720546573#7" departLane='best' departSpeed='max' departPos='random' type="passenger"/>
    <trip id="81" depart="81.00" from="686781072" to="-1185928010" departLane='best' departSpeed='max' departPos='random' type="passenger"/>
    <trip id="82" depart="82.00" from="-38235296#0" to="28103794#5-AddedOnRampEdge" departLane='best' departSpeed='max' departPos='random' type="passenger"/>
    <trip id="83" depart="83.00" from="-293153161#0" to="-24582921#0" departLane='best' departSpeed='max' departPos='random' type="passenger"/>
    <trip id="84" depart="84.00" from="80414533#5" to="24577487#4" departLane='best' departSpeed='max' departPos='random' type="passenger"/>
    <trip id="85" depart="85.00" from="1252826818#3" to="563679836#8" departLane='best' departSpeed='max' departPos='random' type="passenger"/>
    <trip id="86" depart="86.00" from="578543603#4" to="-289747210#2" departLane='best' departSpeed='max' departPos='random' type="passenger"/>
    <trip id="87" depart="87.00" from="-1287065074#1" to="1133370008#0" departLane='best' departSpeed='max' departPos='random' type="passenger"/>
    <trip id="88" depart="88.00" from="1122030701" to="1252826818#2" departLane='best' departSpeed='max' departPos='random' type="passenger"/>
    <trip id="89" depart="89.00" from="38699591#5" to="291266017#4" departLane='best' departSpeed='max' departPos='random' type="passenger"/>
    <trip id="90" depart="90.00" from="998790351#0" to="-154356520#0" departLane='best' departSpeed='max' departPos='random' type="passenger"/>
    <trip id="91" depart="91.00" from="1076510349#0" to="-993538739" departLane='best' departSpeed='max' departPos='random' type="passenger"/>
    <trip id="92" depart="92.00" from="686792699#0" to="-553588769#1" departLane='best' departSpeed='max' departPos='random' type="passenger"/>
    <trip id="93" depart="93.00" from="-24584391#0" to="1184935694" departLane='best' departSpeed='max' departPos='random' type="passenger"/>
    <trip id="94" depart="94.00" from="1122030697#1" to="-686792698#4" departLane='best' departSpeed='max' departPos='random' type="passenger"/>
    <trip id="95" depart="95.00" from="-423618425#3" to="758753899#3" departLane='best' departSpeed='max' departPos='random' type="passenger"/>
    <trip id="96" depart="96.00" from="1145143266#1" to="686792703#0" departLane='best' departSpeed='max' departPos='random' type="passenger"/>
    <trip id="97" depart="97.00" from="24563436#2" to="-1122230045" departLane='best' departSpeed='max' departPos='random' type="passenger"/>
    <trip id="98" depart="98.00" from="998790359" to="615556519#0" departLane='best' departSpeed='max' departPos='random' type="passenger"/>
    <trip id="99" depart="99.00" from="995792406#1" to="773816585#1" departLane='best' departSpeed='max' departPos='random' type="passenger"/>
    <trip id="100" depart="100.00" from="662886374#1" to="-24584373#3" departLane='best' departSpeed='max' departPos='random' type="passenger"/>
    <trip id="101" depart="101.00" from="1285005493#7" to="-370672194#7" departLane='best' departSpeed='max' departPos='random' type="passenger"/>
    <trip id="102" depart="102.00" from="1074774615#2" to="-1145143266#0" departLane='best' departSpeed='max' departPos='random' type="passenger"/>
    <trip id="103" depart="103.00" from="1046815746" to="998790352#1" departLane='best' departSpeed='max' departPos='random' type="passenger"/>
    <trip id="104" depart="104.00" from="-553590474#4" to="563679836#6" departLane='best' departSpeed='max' departPos='random' type="passenger"/>
    <trip id="105" depart="105.00" from="1184935694" to="1122220363" departLane='best' departSpeed='max' departPos='random' type="passenger"/>
    <trip id="106" depart="106.00" from="80926788#2" to="998790358#15" departLane='best' departSpeed='max' departPos='random' type="passenger"/>
    <trip id="107" depart="107.00" from="24577096#8" to="38235349#1" departLane='best' departSpeed='max' departPos='random' type="passenger"/>
    <trip id="108" depart="108.00" from="-24583488#2" to="-707566696#4" departLane='best' departSpeed='max' departPos='random' type="passenger"/>
    <trip id="109" depart="109.00" from="995792406#0" to="24582921#2" departLane='best' departSpeed='max' departPos='random' type="passenger"/>
    <trip id="110" depart="110.00" from="23133600#4" to="44277692#2" departLane='best' departSpeed='max' departPos='random' type="passenger"/>
    <trip id="111" depart="111.00" from="-1122226239" to="24583327#2" departLane='best' departSpeed='max' departPos='random' type="passenger"/>
    <trip id="112" depart="112.00" from="1386086511#1" to="686673952#1" departLane='best' departSpeed='max' departPos='random' type="passenger"/>
    <trip id="113" depart="113.00" from="-24583489#1" to="83675250#2" departLane='best' departSpeed='max' departPos='random' type="passenger"/>
    <trip id="114" depart="114.00" from="-1185928006#1" to="-267447262#10" departLane='best' departSpeed='max' departPos='random' type="passenger"/>
    <trip id="115" depart="115.00" from="24583332#17" to="291266018#0" departLane='best' departSpeed='max' departPos='random' type="passenger"/>
    <trip id="116" depart="116.00" from="-38235041#1" to="-235103610#0" departLane='best' departSpeed='max' departPos='random' type="passenger"/>
    <trip id="117" depart="117.00" from="714990513#2" to="-44263461#7" departLane='best' departSpeed='max' departPos='random' type="passenger"/>
    <trip id="118" depart="118.00" from="24583332#16" to="24583590#0" departLane='best' departSpeed='max' departPos='random' type="passenger"/>
    <trip id="119" depart="119.00" from="1121186669#1" to="24583327#13" departLane='best' departSpeed='max' departPos='random' type="passenger"/>
    <trip id="120" depart="120.00" from="164698289#2" to="80414533#2" departLane='best' departSpeed='max' departPos='random' type="passenger"/>
    <trip id="121" depart="121.00" from="-289747210#2" to="38235289#1" departLane='best' departSpeed='max' departPos='random' type="passenger"/>
    <trip id="122" depart="122.00" from="-38235302#1" to="1076827648" departLane='best' departSpeed='max' departPos='random' type="passenger"/>
    <trip id="123" depart="123.00" from="28103794#5" to="-717454373" departLane='best' departSpeed='max' departPos='random' type="passenger"/>
    <trip id="124" depart="124.00" from="-712992080#4" to="463699077#0" departLane='best' departSpeed='max' departPos='random' type="passenger"/>
    <trip id="125" depart="125.00" from="-1153925787#1" to="1219699876#1" departLane='best' departSpeed='max' departPos='random' type="passenger"/>
    <trip id="126" depart="126.00" from="998790358#7" to="998790358#17" departLane='best' departSpeed='max' departPos='random' type="passenger"/>
    <trip id="127" depart="127.00" from="-1153925787#4" to="-370672194#5" departLane='best' departSpeed='max' departPos='random' type="passenger"/>
    <trip id="128" depart="128.00" from="-553590474#4" to="779077038#5" departLane='best' departSpeed='max' departPos='random' type="passenger"/>
    <trip id="129" depart="129.00" from="706373643" to="700305760#4" departLane='best' departSpeed='max' departPos='random' type="passenger"/>
    <trip id="130" depart="130.00" from="-998790358#12" to="-24583592#4" departLane='best' departSpeed='max' departPos='random' type="passenger"/>
    <trip id="131" depart="131.00" from="612734125" to="370672194#6" departLane='best' departSpeed='max' departPos='random' type="passenger"/>
    <trip id="132" depart="132.00" from="24583489#2" to="998790353#4" departLane='best' departSpeed='max' departPos='random' type="passenger"/>
    <trip id="133" depart="133.00" from="24584386" to="-1072914442#2" departLane='best' departSpeed='max' departPos='random' type="passenger"/>
    <trip id="134" depart="134.00" from="596373332#4" to="-717454371" departLane='best' departSpeed='max' departPos='random' type="passenger"/>
    <trip id="135" depart="135.00" from="253307772" to="80418095#6" departLane='best' departSpeed='max' departPos='random' type="passenger"/>
    <trip id="136" depart="136.00" from="-235103516#3" to="-169081336#3" departLane='best' departSpeed='max' departPos='random' type="passenger"/>
    <trip id="137" depart="137.00" from="-1386106195#3" to="24577096#8" departLane='best' departSpeed='max' departPos='random' type="passenger"/>
    <trip id="138" depart="138.00" from="-562499724#17" to="24583488#4" departLane='best' departSpeed='max' departPos='random' type="passenger"/>
    <trip id="139" depart="139.00" from="38235041#2" to="-311994765#0" departLane='best' departSpeed='max' departPos='random' type="passenger"/>
    <trip id="140" depart="140.00" from="24584373#4" to="-582759331#2" departLane='best' departSpeed='max' departPos='random' type="passenger"/>
    <trip id="141" depart="141.00" from="1292286060#0" to="720546573#7" departLane='best' departSpeed='max' departPos='random' type="passenger"/>
    <trip id="142" depart="142.00" from="656933877#2" to="-1386106195#5" departLane='best' departSpeed='max' departPos='random' type="passenger"/>
    <trip id="143" depart="143.00" from="1122030701" to="-686771927#0" departLane='best' departSpeed='max' departPos='random' type="passenger"/>
    <trip id="144" depart="144.00" from="-1057072145" to="562499724#20" departLane='best' departSpeed='max' departPos='random' type="passenger"/>
    <trip id="145" depart="145.00" from="24584374#2" to="-577982260#2" departLane='best' departSpeed='max' departPos='random' type="passenger"/>
    <trip id="146" depart="146.00" from="442157834" to="24577096#3" departLane='best' departSpeed='max' departPos='random' type="passenger"/>
    <trip id="147" depart="147.00" from="1122215528#1" to="-1072914445#0" departLane='best' departSpeed='max' departPos='random' type="passenger"/>
    <trip id="148" depart="148.00" from="-1184932071#1" to="707566696#1" departLane='best' departSpeed='max' departPos='random' type="passenger"/>
    <trip id="149" depart="149.00" from="720546573#0" to="235103445#2" departLane='best' departSpeed='max' departPos='random' type="passenger"/>
    <trip id="150" depart="150.00" from="612734126#1" to="24583327#0" departLane='best' departSpeed='max' departPos='random' type="passenger"/>
    <trip id="151" depart="151.00" from="-24582921#4" to="-24577361#5" departLane='best' departSpeed='max' departPos='random' type="passenger"/>
    <trip id="152" depart="152.00" from="-700293879#2" to="717907807#2" departLane='best' departSpeed='max' departPos='random' type="passenger"/>
    <trip id="153" depart="153.00" from="563974735#3" to="686792700#0" departLane='best' departSpeed='max' departPos='random' type="passenger"/>
    <trip id="154" depart="154.00" from="717907807#1" to="-370672194#1" departLane='best' departSpeed='max' departPos='random' type="passenger"/>
    <trip id="155" depart="155.00" from="563679820#5" to="707566696#6" departLane='best' departSpeed='max' departPos='random' type="passenger"/>
    <trip id="156" depart="156.00" from="1076782191" to="24583590#4" departLane='best' departSpeed='max' departPos='random' type="passenger"/>
    <trip id="157" depart="157.00" from="-24583488#10" to="778199266#2" departLane='best' departSpeed='max' departPos='random' type="passenger"/>
    <trip id="158" depart="158.00" from="686792708" to="996679779#5" departLane='best' departSpeed='max' departPos='random' type="passenger"/>
    <trip id="159" depart="159.00" from="579781481#6" to="706854224#1" departLane='best' departSpeed='max' departPos='random' type="passenger"/>
    <trip id="160" depart="160.00" from="-1076782188#3" to="423618444#2" departLane='best' departSpeed='max' departPos='random' type="passenger"/>
    <trip id="161" depart="161.00" from="-750482273#11" to="778199266#5" departLane='best' departSpeed='max' departPos='random' type="passenger"/>
    <trip id="162" depart="162.00" from="570616027" to="686792709#2" departLane='best' departSpeed='max' departPos='random' type="passenger"/>
    <trip id="163" depart="163.00" from="579781481#6" to="-612734123#1" departLane='best' departSpeed='max' departPos='random' type="passenger"/>
    <trip id="164" depart="164.00" from="563679836#5" to="-164698290#7" departLane='best' departSpeed='max' departPos='random' type="passenger"/>
    <trip id="165" depart="165.00" from="700293874#1" to="686792698#1" departLane='best' departSpeed='max' departPos='random' type="passenger"/>
    <trip id="166" depart="166.00" from="-343654534#1" to="596373338#2" departLane='best' departSpeed='max' departPos='random' type="passenger"/>
    <trip id="167" depart="167.00" from="1185928009" to="-717454380#1" departLane='best' departSpeed='max' departPos='random' type="passenger"/>
    <trip id="168" depart="168.00" from="563974735#0" to="-38699585#4" departLane='best' departSpeed='max' departPos='random' type="passenger"/>
    <trip id="169" depart="169.00" from="-1076749550" to="-291266017#4" departLane='best' departSpeed='max' departPos='random' type="passenger"/>
    <trip id="170" depart="170.00" from="-74851423#0" to="686792710#0" departLane='best' departSpeed='max' departPos='random' type="passenger"/>
    <trip id="171" depart="171.00" from="994825990#0" to="-686792699#0" departLane='best' departSpeed='max' departPos='random' type="passenger"/>
    <trip id="172" depart="172.00" from="24584375#9" to="1121139432#0" departLane='best' departSpeed='max' departPos='random' type="passenger"/>
    <trip id="173" depart="173.00" from="997761545" to="174274680#1" departLane='best' departSpeed='max' departPos='random' type="passenger"/>
    <trip id="174" depart="174.00" from="80418095#7" to="-169081336#3" departLane='best' departSpeed='max' departPos='random' type="passenger"/>
    <trip id="175" depart="175.00" from="995792406#5" to="-24584410" departLane='best' departSpeed='max' departPos='random' type="passenger"/>
    <trip id="176" depart="176.00" from="993538740" to="-612734121#0" departLane='best' departSpeed='max' departPos='random' type="passenger"/>
    <trip id="177" depart="177.00" from="-1386548336" to="1144624113#3" departLane='best' departSpeed='max' departPos='random' type="passenger"/>
    <trip id="178" depart="178.00" from="38699591#3" to="-74851423#8" departLane='best' departSpeed='max' departPos='random' type="passenger"/>
    <trip id="179" depart="179.00" from="24583487#8" to="154356516#10" departLane='best' departSpeed='max' departPos='random' type="passenger"/>
    <trip id="180" depart="180.00" from="1072914437#0" to="24582919#2" departLane='best' departSpeed='max' departPos='random' type="passenger"/>
    <trip id="181" depart="181.00" from="-424007961#1" to="370761286#8" departLane='best' departSpeed='max' departPos='random' type="passenger"/>
    <trip id="182" depart="182.00" from="-103176793#2" to="763520419#0" departLane='best' departSpeed='max' departPos='random' type="passenger"/>
    <trip id="183" depart="183.00" from="174274680#2" to="38699585#3" departLane='best' departSpeed='max' departPos='random' type="passenger"/>
    <trip id="184" depart="184.00" from="44263457#0" to="289747210#4" departLane='best' departSpeed='max' departPos='random' type="passenger"/>
    <trip id="185" depart="185.00" from="-998790354#4" to="-1185928007#3" departLane='best' departSpeed='max' departPos='random' type="passenger"/>
    <trip id="186" depart="186.00" from="265975966#2" to="-80418144#0" departLane='best' departSpeed='max' departPos='random' type="passenger"/>
    <trip id="187" depart="187.00" from="-707566696#3" to="665921717" departLane='best' departSpeed='max' departPos='random' type="passenger"/>
    <trip id="188" depart="188.00" from="38235296#0" to="-717454374" departLane='best' departSpeed='max' departPos='random' type="passenger"/>
    <trip id="189" depart="189.00" from="-700293881" to="1122030697#1" departLane='best' departSpeed='max' departPos='random' type="passenger"/>
    <trip id="190" depart="190.00" from="1076510349#0" to="-707566695#1" departLane='best' departSpeed='max' departPos='random' type="passenger"/>
    <trip id="191" depart="191.00" from="717907819#2" to="24583495#9" departLane='best' departSpeed='max' departPos='random' type="passenger"/>
    <trip id="192" depart="192.00" from="-686847276#1" to="24563436#1" departLane='best' departSpeed='max' departPos='random' type="passenger"/>
    <trip id="193" depart="193.00" from="-103176785#1" to="-697766793#1" departLane='best' departSpeed='max' departPos='random' type="passenger"/>
    <trip id="194" depart="194.00" from="1122215531#1" to="24582921#4" departLane='best' departSpeed='max' departPos='random' type="passenger"/>
    <trip id="195" depart="195.00" from="24584388#1" to="1234918800" departLane='best' departSpeed='max' departPos='random' type="passenger"/>
    <trip id="196" depart="196.00" from="1144624114#0" to="-370672194#7" departLane='best' departSpeed='max' departPos='random' type="passenger"/>
    <trip id="197" depart="197.00" from="563974735#10" to="-24584374#3" departLane='best' departSpeed='max' departPos='random' type="passenger"/>
    <trip id="198" depart="198.00" from="-1216791011#2" to="154356520#3" departLane='best' departSpeed='max' departPos='random' type="passenger"/>
    <trip id="199" depart="199.00" from="24583769#2" to="-80926777#3" departLane='best' departSpeed='max' departPos='random' type="passenger"/>
    <trip id="200" depart="200.00" from="596373338#10" to="447602096#1" departLane='best' departSpeed='max' departPos='random' type="passenger"/>
    <trip id="201" depart="201.00" from="289747210#0" to="-38235302#2" departLane='best' departSpeed='max' departPos='random' type="passenger"/>
    <trip id="202" depart="202.00" from="-267447262#1" to="-1076782192" departLane='best' departSpeed='max' departPos='random' type="passenger"/>