<configuration>
    <input>
        <net-file value="cp.net.xml"/>
        <route-files value="dijkstra_filtered.rou.xml"/>
    </input>
    <time>
        <begin value="0"/>
        <end value="1000"/>
    </time>
</configuration>