<?xml version="1.0" encoding="UTF-8"?>

<!-- generated on 2025-07-06 13:39:05.948670 by randomTrips.py v1_23_1+0000-676720d13f6
<configuration>
    <net-file value="cp.net.xml"/>
    <output-trip-file value="cp.rou.xml"/>
    <route-file value="cp.trips.xml"/>
    <trip-attributes value="departLane='best' departSpeed='max' departPos='random'"/>
    <vehicle-class value="passenger"/>
    <validate value="True"/>
    <end value="1000.0"/>
</configuration>
-->

<!-- generated on 2025-07-06 13:39:05 by Eclipse SUMO duarouter Version 1.23.1
<duarouterConfiguration xmlns:xsi="http://www.w3.org/2001/XMLSchema-instance" xsi:noNamespaceSchemaLocation="http://sumo.dlr.de/xsd/duarouterConfiguration.xsd">

    <input>
        <net-file value="cp.net.xml"/>
        <route-files value="cp.rou.xml"/>
    </input>

    <output>
        <output-file value="cp.trips.xml"/>
        <alternatives-output value="NUL"/>
    </output>

    <time>
        <begin value="0.0"/>
        <end value="1000.0"/>
    </time>

    <report>
        <no-warnings value="true"/>
        <ignore-errors value="true"/>
        <no-step-log value="true"/>
    </report>

</duarouterConfiguration>
-->

<routes xmlns:xsi="http://www.w3.org/2001/XMLSchema-instance" xsi:noNamespaceSchemaLocation="http://sumo.dlr.de/xsd/routes_file.xsd">
    <vType id="passenger" vClass="passenger"/>
    <vehicle id="0" type="passenger" depart="0.00" departLane="best" departPos="random" departSpeed="max">
        <route edges="24584375#3 24584375#4 24584375#5 24584375#6 24584375#7 24584375#8 24584375#9 24584375#10 447141153#0 611866595#0 611866595#1 611866595#2 611866595#3 611866595#4 611866594 611866596#0 611866596#1 1066077570#0 1066077570#1 1066077570#2 447141137#0 447141137#1 447141137#2 758753881#0 758753881#1 758753882 590609994#0 590609994#1 572511730 447141148 24583327#0 24583327#1 24583327#2 24583327#3 24583327#4 24583327#5 24583327#6 24583327#7 24583327#8 24583327#9 24583327#10 24583327#11 74851428#0 74851428#1 74851428#2 74851428#3 74851428#4 74851428#4-AddedOffRampEdge 74851428#5 563791811#1 563791811#2 563791811#3 563791811#4 563791811#5 563791811#6 563791811#7 563679820#0 563679820#1 563679820#2 563679820#3 563679820#4 563679820#5 563679820#6 563679820#7 563679820#8 563679820#9 563679820#11 563679820#12 563679820#13 563679820#14 563679820#15 1312753971#0 1312753971#1 553596950 74851427 164782722 -265975966#4 -750482273#11 -750482273#10 -750482273#8 -750482273#7 154356520#3 -1076782193#0"/>
    </vehicle>
    <vehicle id="1" type="passenger" depart="1.00" departLane="best" departPos="random" departSpeed="max">
        <route edges="-562499724#6 -562499724#5 -562499724#4 -562499724#3 -562499724#2 -562499724#1 -562499724#0 116046167#8 116046167#9 579781481#1 579781481#2 579781481#3 579781481#4 579781481#5 579781481#6 579781481#7 579781481#8 579781481#9 579781481#10 579781481#11 570616027 23133709#0 23133709#1 23133709#2 23133709#3 23133709#4 23133709#5 562340241 562340241-AddedOffRampEdge 562340248#0 562340248#1 564223496#0 564223496#1 578543605 564223494#0 564223494#1 564223494#2 564223494#3 554665389#0 554665389#1 554665389#2 125453679#0 125453679#1 125453679#3 125453679#4 125453679#5 1331524579#0 1331524579#1 1394089479 1394089480 -1210584097 -38235302#3 -38235302#2 -38235302#1 -38235289#0"/>
    </vehicle>
    <vehicle id="2" type="passenger" depart="2.00" departLane="best" departPos="random" departSpeed="max">
        <route edges="423618426#0 -423618425#2 -423618425#1 -423618425#0 -169081336#6 -169081336#5 -169081336#4 -169081336#3 -169081336#2 -169081336#1 -169081336#0 80926788#4 80926788#5 80926788#6 80926788#7 463699077#0 492439727#2 492439726#0 492439726#1 80926759#0 80926759#1 80926759#2 80926759#4 80926759#4-AddedOffRampEdge 80926759#5 80926759#6-AddedOnRampEdge 80926759#6 80926759#7 578543606 730111073#0 730111073#1 730111073#2 446922590#0 446922590#1 446922590#2 446922590#3 446922590#4 446922590#5 446922590#6 596349216 572511732#0 572511732#1 572511732#2 572511732#3 572511732#4 24582917#0 24582917#1 24582917#3 1076510349#0 1076510349#1 1153925787#1 1153925787#2 1153925787#3 1153925787#4 291266019#0"/>
    </vehicle>
    <vehicle id="3" type="passenger" depart="3.00" departLane="best" departPos="random" departSpeed="max">
        <route edges="717454375#0 -717454375#0 -717454379#1 -717454379#0 -717454380#0 38699591#9 38699591#10 38699591#11 38699591#12 -1306160891#1 -1306160891#0 -746512769#3 -746512769#2 -746512769#1 -746512769#0 -1327819724 -1327819722"/>
    </vehicle>
    <vehicle id="4" type="passenger" depart="4.00" departLane="best" departPos="random" departSpeed="max">
        <route edges="1122030697#1 1122030697#2 1122030701 775258786#3 24584374#1 24584374#2 24584374#3 24584374#5 24584374#6 24583330#6 24583330#7 24583330#8 615556515#0 615556515#1 564223494#0 564223494#1 564223494#2 564223494#3 554665389#0 554665389#1 554665389#2 578543604 578543606 730111073#0 730111073#1 730111073#2 446922590#0 446922590#1 446922590#2 446922590#3 446922590#4 446922590#5 446922590#6 596349216 572511732#0 572511732#1 572511732#2 572511732#3 572511732#4 24582917#0 24582917#1 24582917#3 1076510349#0 1076510349#1 1076510348 -553590474#6 -553590474#5 -553590474#4 -553590474#3 -1121139429#1"/>
    </vehicle>
    <vehicle id="5" type="passenger" depart="5.00" departLane="best" departPos="random" departSpeed="max">
        <route edges="-311994765#1 -311994765#0 311994767 -24584373#2 125453679#3 125453679#4 125453679#5 1331524579#0 1331524579#1 1394089479"/>
    </vehicle>
    <vehicle id="6" type="passenger" depart="6.00" departLane="best" departPos="random" departSpeed="max">
        <route edges="-1076782194#0 1312753969#1 665921720 665921719 665921717 1312753970#0 1312753970#2 80499778#1 80499778#2 80499778#3 80499778#4 80499778#5 80499778#6 562340247#0 562340247#1 562340247#2 562340247#3 562340247#5 562340245 23133709#0 23133709#1 23133709#2 23133709#3 23133709#4 23133709#5 562340241 562340241-AddedOffRampEdge 562340248#0 562340248#1 564223496#0 564223496#1 578543605 564223494#0 564223494#1 564223494#2 564223494#3 554665389#0 554665389#1 554665389#2 125453679#0 125453679#1 -319329101#10 -319329101#9 -38235349#3 993538737 -293153156#0 -293153141#1 -293153145#1 -293153159#0"/>
    </vehicle>
    <vehicle id="7" type="passenger" depart="7.00" departLane="best" departPos="random" departSpeed="max">
        <route edges="24584381#5 447141139 447141140#0 447141140#1 447141140#2 722082949#0 722082949#1 447141153#0 611866595#0 611866595#1 611866595#2 611866595#3 611866595#4 611866594 611866596#0 611866596#1 1066077570#0 1066077570#1 1066077570#2 447141137#0 447141137#1 447141137#2 758753881#0 758753881#1 758753882 590609994#0 590609994#1 572511730 447141148 572511731 447141147#0 24583334#0 24583334#1 24583334#4 24583334#5 24583337#3 24583337#4 24583337#5 24583337#6 24583337#7 24583339#0 24583339#1 24583339#2 24583339#3 24583339#4 24583339#5 24583339#6 447141132#4 596373329 562340239 998790359 998790356#0 998790356#1 998790356#2 998790356#3 998790356#4 998790356#5 998790356#6 998790356#7 998790356#8 998790355#1 998790354#0 998790354#1 998790354#2 998790354#3 998790354#4 998790354#5 998790354#7 998790352#0 998790352#1 998790352#3 998790352#4 998790358#0 998790358#1 998790358#2 998790358#3 998790358#4 998790358#5 998790358#6 998790358#7 998790358#9 998790358#10 998790358#11 998790358#12 998790358#14 998790358#15 998790358#16 998790358#17 998790358#18 998790358#19 998790351#0 998790351#1 998790351#2 447141131#0 447141131#1 447141131#2 446922589 24583333#0 24583333#1 24583333#2 24583333#3 24583333#4 24583333#5 24583333#6 446922584#0 446922584#1 446922586#0 995113418 -712992080#4 -712992080#3 -712992080#2 -712992080#1 370672197#0 235103445#0"/>
    </vehicle>
    <vehicle id="8" type="passenger" depart="8.00" departLane="best" departPos="random" departSpeed="max">
        <route edges="-319329101#4 -319329101#3 -319329101#2 319329101#2 319329101#3 319329101#4 319329101#5 319329101#6 319329101#7 319329101#9 319329101#10 24584373#2 24584373#3 24584373#4 24584373#5 24584373#6 24584373#7 24584373#8 24584373#9 24584373#10 1285005491 1219699881#0 1219699881#1 1219699881#2 1219699881#3 1219699881#4 24583330#0 24583330#1 24583330#2 24583330#3 24583330#4 24583330#5 24583330#6 24583330#7 24583330#8"/>
    </vehicle>
    <vehicle id="9" type="passenger" depart="9.00" departLane="best" departPos="random" departSpeed="max">
        <route edges="579781481#2 579781481#3 579781481#4 579781481#5 579781481#6 579781481#7 579781481#8 579781481#9 579781481#10 579781481#11 570616027 23133709#0 23133709#1 23133709#2 23133709#3 23133709#4 23133709#5 562340241 562340241-AddedOffRampEdge 562340248#0 562340248#1 564223496#0 564223496#1 578543605 564223494#0 564223494#1 564223494#2 564223494#3 31056641 1393463455#0 1393463455#1 1393463455#2 615556519#0 615556519#1 615556519#2 615556519#3 615556519#4 615556519#5 615556519#6 615556519#7 615556519#8 615556519#9 -24584373#10 253307769#0 253307769#1 -1072914440#1"/>
    </vehicle>
    <vehicle id="10" type="passenger" depart="10.00" departLane="best" departPos="random" departSpeed="max">
        <route edges="577982260#6 998790355#1 998790354#0 998790354#1 998790354#2 998790354#3 998790354#4 998790354#5 998790354#7 998790352#0 998790352#1 116046167#1 116046167#2 116046167#3 116046167#5 116046167#6 116046167#7 116046167#8 116046167#9 579781481#1 579781481#2 579781481#3 579781481#4 579781481#5 579781481#6 579781481#7 579781481#8 579781481#9 579781481#10 579781481#11 570616027 23133709#0 23133709#1 23133709#2 23133709#3 23133709#4 23133709#5 562340241 562340241-AddedOffRampEdge 562340248#0 562340248#1 564223496#0 564223496#1 578543605 564223494#0 564223494#1 564223494#2 564223494#3 554665389#0 554665389#1 554665389#2 125453679#0 125453679#1 -319329101#10 -319329101#9 -38235349#3 -38235349#1 -38235349#0 360250362#0"/>
    </vehicle>
    <vehicle id="11" type="passenger" depart="11.00" departLane="best" departPos="random" departSpeed="max">
        <route edges="-779077038#4 -1072967424 -80926770#2 -80926770#1 -80926770#0 111695524#3 44277692#1 44277692#2 447141149#1 447141149#2 665150702 554665390 24583321#0 24583321#1 24583321#2 997761553 997761552#0 997761552#1 994825990#0 994825990#1 994825990#2 447141148 572511731 447141147#0 24583334#0 24583334#1 24583334#4 24583334#5 24583337#3 24583337#4 24583337#5 24583337#6 24583337#7 24583339#0 24583339#1 24583339#2 24583339#3 24583339#4 24583339#5 24583339#6 447141132#4 596373329 562340239 998790359 998790356#0 998790356#1 998790356#2 998790356#3 998790356#4 998790356#5 998790356#6 998790356#7 998790356#8 -577982260#6 -24583590#3 -24583590#2"/>
    </vehicle>
    <vehicle id="12" type="passenger" depart="12.00" departLane="best" departPos="random" departSpeed="max">
        <route edges="80926788#1 80926788#2 80926788#3 80926788#4 80926788#5 80926788#6 80926788#7 463699077#0 1331524579#0 1331524579#1 -267447262#15 -267447262#14 -267447262#13 -267447262#11 -267447262#10 -267447262#9 -267447262#8 -267447262#7 -267447262#6 -267447262#5 -267447262#4 -267447262#3 83675250#0 -83675250#0"/>
    </vehicle>
    <vehicle id="13" type="passenger" depart="13.00" departLane="best" departPos="random" departSpeed="max">
        <route edges="-1255913760#0 -80418093#0 -80418095#1 -80418095#0 -38699587#0 265975963#3 -1306141818#1 -1306141818#0 1312753969#0 1312753969#1 665921720 665921719 665921717 1312753970#0 611866603#0 611866603#1 611866603#2 523568284#3 523568284#4 523568284#5 24583333#0 24583333#1 24583333#2 24583333#3 24583333#4 1075734525#0 -1287065074#1 -1287065074#0 -1138292933#4 -1138292933#3 -1138292933#2 -142865883#10 -142865883#9"/>
    </vehicle>
    <vehicle id="14" type="passenger" depart="14.00" departLane="best" departPos="random" departSpeed="max">
        <route edges="656933877#7 24577358#0 24577358#1 24577121#4 24577121#5 24577121#6 24577121#7 24577121#8 24577121#9 579781482#0 579781482#1 579781482#2 116046167#1 116046167#2 116046167#3 116046167#5 116046167#6 116046167#7 116046167#8 995793691 995793692#0 995793692#1 995793692#2 995793692#3 995793692#4 995793692#5 995793692#6 995793692#7 563975284#0 563974730#0 563974730#1 563974730#2 563974730#3 563974730#4 563974730#5 24583327#13 997761545-AddedOnRampEdge 997761545 997761544 997761546#0 24583488#0"/>
    </vehicle>
    <vehicle id="15" type="passenger" depart="15.00" departLane="best" departPos="random" departSpeed="max">
        <route edges="578543603#3 578543603#4 611866604#0 611866604#1 611866602#0 611866602#1 611866602#2 611866602#3 611866602#4 -1153925787#3 -1153925787#2 -1153925787#1 -1153925787#0 24582919#1 24582919#2 24582919#3 24582919#4 423563749#0 423563749#1"/>
    </vehicle>
    <vehicle id="16" type="passenger" depart="16.00" departLane="best" departPos="random" departSpeed="max">
        <route edges="169081336#4 -169081336#4 -169081336#3 -169081336#2 -169081336#1 -169081336#0 80926788#4 80926788#5 80926788#6 80926788#7 463699077#0 492439727#2 492439726#0 492439726#1 80926759#0 80926759#1 80926759#2 80926759#4 80926759#4-AddedOffRampEdge 80926759#5 80926759#6-AddedOnRampEdge 80926759#6 80926759#7 578543606 730111073#0 730111073#1 730111073#2 446922590#0 446922590#1 446922590#2 446922590#3 446922590#4 446922590#5 446922590#6 596349216 572511732#0 572511732#1 572511732#2 572511732#3 572511732#4 572511732#5 572511732#6 572511732#7 572511732#8 446922591 760480736 562340247#0 562340247#1 562340247#2 562340247#3 562340247#5 562340243 570616026#0 570616026#1 570616026#2 570616026#4 570616026#5 570616026#6 570616026#7 570616026#8 570616026#9 570616026#10 563974733#1 995793692#0 995793692#1 995793692#2 995793692#3 995793692#4"/>
    </vehicle>
    <vehicle id="17" type="passenger" depart="17.00" departLane="best" departPos="random" departSpeed="max">
        <route edges="1040444893#0 1040444893#1 -1040444893#1 -1040444893#0 -24582920#1 -1386548336 572511732#6 572511732#7 572511732#8 446922591 760480736 562340247#0 562340247#1 562340247#2 562340247#3 562340247#5 562340245 23133709#0 23133709#1 23133709#2 23133709#3 23133709#4 596373346 596373332#0 596373332#1 596373332#2 596373332#3 596373332#4 596373332#5 614071999 614071995 596373338#0 596373338#1 596373338#2 596373338#4 596373338#5 596373338#6 596373338#7 596373338#8 596373338#9 596373338#10 596373338#11 596373338#12 596373338#13 562340239 722082943#0 722082943#1 23134734#0 23134734#1 23134734#2 23134734#3 710645770 447141133#0 447141133#1 722082944 447141132#0 447141132#1 447141132#2 447141132#3 447141132#4 24577096#0 24577096#1 24577096#2 24577096#3 24577096#4"/>
    </vehicle>
    <vehicle id="18" type="passenger" depart="18.00" departLane="best" departPos="random" departSpeed="max">
        <route edges="611866603#2 523568284#3 523568284#4 523568284#5 24583333#0 24583333#1 24583333#2 24583333#3 24583333#4 24583333#5 24583333#6 446922584#0 446922584#1 446922586#0 446922586#1 995113415 570859666#0 570859666#1 570859666#2 446922583#0 446922583#1 712992079#0 712992079#1 1202691839#0 -998790358#19 -998790358#18 -998790358#17 -998790358#16 -998790358#15 -998790358#14 -998790358#12 -998790358#11 -998790358#10 -998790358#9 -998790358#7 -998790358#6 -998790358#5 -998790358#4 -998790358#3 -998790358#2 -998790358#1 -998790358#0 998790353#0 998790353#1 116046167#1 -24583584#4 -24583587#3 24583587#3"/>
    </vehicle>
    <vehicle id="19" type="passenger" depart="19.00" departLane="best" departPos="random" departSpeed="max">
        <route edges="686792699#0 -686792699#0 1145143266#10 1219699881#0 1219699881#1 1219699881#2 1219699881#3 1219699881#4 24583330#0 24583330#1 24583330#2 24583330#3 24583330#4 24583330#5 24583330#6 24583330#7 24583330#8 615556515#0 615556515#1 564223494#0 564223494#1 564223494#2 564223494#3 554665389#0 554665389#1 554665389#2 578543604 578543606 730111073#0 730111073#1 730111073#2 446922590#0 446922590#1 446922590#2 446922590#3 446922590#4 446922590#5 446922590#6 596349216 572511732#0 572511732#1 572511732#2 572511732#3 572511732#4 572511732#5 572511732#6 572511732#7 -24582921#11 -24582921#10 -1374634869#2 -423563749#3 -423563749#2 -423563749#1 -423563749#0 -24582919#4 24582919#4"/>
    </vehicle>
    <vehicle id="20" type="passenger" depart="20.00" departLane="best" departPos="random" departSpeed="max">
        <route edges="370672194#12 370672194#13 370672194#14 -24583593#8 -24583593#7 -24583593#6 -24583593#5 998790358#18 998790358#19 998790351#0 998790351#1 998790351#2 447141131#0 447141131#1 447141131#2 1076627689#0 1076627689#1 1076627690 562439576 996679781#0 80499778#1 80499778#2 80499778#3 80499778#4 80499778#5 80499778#6 562340247#0 562340247#1 562340247#2 562340247#3 562340247#5 562340245 23133709#0 23133709#1 23133709#2 23133709#3 23133709#4 23133709#5 562340241 562340241-AddedOffRampEdge 562340248#0 562340248#1 564223496#0 564223496#1 24583332#0 24583332#1 615556516 44263461#0 -686682898#3 -686682898#2 -686682898#1 -686682898#0 103176793#2 993539970 -1122215530"/>
    </vehicle>
    <vehicle id="21" type="passenger" depart="21.00" departLane="best" departPos="random" departSpeed="max">
        <route edges="-370672194#6 -370672194#5 -370672194#4 -370672194#3 -370672194#2 -370672194#1 -370672194#0 116046166#0 116046166#1 116046166#2 24577121#1 24577121#2 24577360#0 24577360#1 24577360#2 24577360#3 1306148229#1 1306148229#2 1306148229#3 1306148229#4 1306148229#6 1306148229#7 1306148229#8 1306148229#9 656933874 446922583#1 722082942 447141131#0 447141131#1 447141131#2 446922589 24583333#0 24583333#1 74851424#0 -1277942000#8 -1277942000#7 -1277942000#5 -1277942000#4 -1277942000#3 -1277942000#1 -1277942000#0 1277941998#1 74851429#4 662886376#0 -74851423#9 -74851423#8 -700293876#0"/>
    </vehicle>
    <vehicle id="22" type="passenger" depart="22.00" departLane="best" departPos="random" departSpeed="max">
        <route edges="-1185928006#0 1185928005#5 31056644#2 779129470 590610031#0 590610031#1 590610031#2 31056642#0 1145143267#0 1145143267#1 700305760#0 700305760#1 700305760#2 700305760#4 700305760#5 700305760#6 700305760#7 44277692#1 44277692#2 447141149#1 447141149#2 665150702 554665390 24583321#0 24583321#1 24583321#2 997761553 997761552#0 997761552#1 994825990#0 994825990#1 994825990#2 447141148 24583327#0 24583327#1 24583327#2 24583327#3 24583327#4 24583327#5 24583327#6 24583327#7 24583327#8 24583327#9 24583327#10 24583327#11 74851428#0 74851428#1 74851428#2 74851428#3 74851428#4 74851428#4-AddedOffRampEdge 611866605 563679821#0 563679821#1 563679821#2 563679821#3 563679821#4 -223906999#1 -423553702#1"/>
    </vehicle>
    <vehicle id="23" type="passenger" depart="23.00" departLane="best" departPos="random" departSpeed="max">
        <route edges="-1306164414 1306164414 154356520#2 154356520#3 154356520#4 154356520#5 686920282 665921720 665921719 665921717 1312753970#0 1312753970#2 80499778#1 80499778#2 80499778#3 80499778#4 80499778#5 80499778#6 562340247#0 562340247#1 562340247#2 562340247#3 562340247#5 562340245 23133709#0 23133709#1 23133709#2 23133709#3 23133709#4 23133709#5 562340241 562340241-AddedOffRampEdge 562340248#0 562340248#1 564223496#0 564223496#1 578543605 564223494#0 564223494#1 564223494#2 564223494#3 31056641 1393463455#0 1393463455#1 1393463455#2 615556519#0 615556519#1 615556519#2 615556519#3 615556519#4 615556519#5 615556519#6 615556519#7 615556519#8 615556519#9 1285005493#1 1285005493#2 1285005493#3 -686792700#1 -686792698#3 -686792698#2"/>
    </vehicle>
    <vehicle id="24" type="passenger" depart="24.00" departLane="best" departPos="random" departSpeed="max">
        <route edges="24584373#8 24584373#9 24584373#10 1285005491 1219699881#0 1219699881#1 1219699881#2 1219699881#3 1219699881#4 24583332#14 24583332#16 24583332#17 554665390 24583321#0 24583321#1 24583321#2 997761553 997761552#0 997761552#1 -24583487#13 -24583487#12 -24583487#11 -24583487#10 -24583487#9 -24583487#8 -24583487#7 -24583487#5 -24583487#4 -24583487#3 -24583487#2 -24583487#1 -24583487#0 1066619121#0 1066619121#1"/>
    </vehicle>
    <vehicle id="25" type="passenger" depart="25.00" departLane="best" departPos="random" departSpeed="max">
        <route edges="-998790358#15 -998790358#14 -998790358#12 -998790358#11 -998790358#10 -998790358#9 -998790358#7 -998790358#6 -998790358#5 -998790358#4 -998790358#3 -998790358#2 -998790358#1 -998790358#0 998790353#0 998790353#1 116046167#1 116046167#2 116046167#3 116046167#5 116046167#6 116046167#7 116046167#8 116046167#9 579781481#1 579781481#2 579781481#3 579781481#4 579781481#5 579781481#6 579781481#7 579781481#8 579781481#9 579781481#10 579781481#11 570616027 23133709#0 23133709#1 23133709#2 23133709#3 23133709#4 23133709#5 562340241 562340241-AddedOffRampEdge 562340248#0 562340248#1 564223496#0 564223496#1 578543605 564223494#0 564223494#1 564223494#2 564223494#3 554665389#0 554665389#1 554665389#2 578543604 578543606 80414533#0 80414533#1 80414533#2 80414533#3 80414533#4 80414533#5 267447262#0 1310427872#0 -360250362#3"/>
    </vehicle>
    <vehicle id="26" type="passenger" depart="26.00" departLane="best" departPos="random" departSpeed="max">
        <route edges="-553590478#2 -553590478#1 633143618 370765179#3 370765179#4 74851429#2 662886372#0 1277942000#0 1277942000#1 1277942000#3 1277942000#4 1277942000#5 1277942000#7 1277942000#8 1277941999#1 24583333#4 24583333#5 24583333#6 446922584#0 446922584#1 446922586#0 446922586#1 995113415 570859666#0 570859666#1 570859666#2 446922583#0 446922583#1 722082942 447141131#0 447141131#1 447141131#2 1076627689#0 1076627689#1 1076627690 562439576 996679781#0 1312753971#0 1312753971#1 553596950 74851427 164782722 1306141818#0 1306141818#1 265975963#0 265975963#1 38699585#0 38699585#3 -80418094#2 -80418094#1 -80418094#0 80418094#0"/>
    </vehicle>
    <vehicle id="27" type="passenger" depart="27.00" departLane="best" departPos="random" departSpeed="max">
        <route edges="24584380#2 24584380#3 24584380#4 675478334#0 675478334#1 675478334#2 675478334#4 675478334#5 675478334#6 24584377#7 24584377#8 24584377#9 447141152 570526053 447141150#0 447141150#1 447141149#0 447141149#1 447141149#2 665150702 554665390 24583321#0 24583321#1 24583321#2 997761553 997761552#0 997761552#1 -24583487#13 -24583487#12 -24583489#13 -24583489#12 -24583489#11 -24583489#9 -24583489#8 -24583489#7 -24583489#6 -24583489#5 24583489#5"/>
    </vehicle>
    <vehicle id="28" type="passenger" depart="28.00" departLane="best" departPos="random" departSpeed="max">
        <route edges="-24583592#1 -24583592#0 563974735#3 563974735#5 563974735#6 563974735#7 563974735#8 563974735#9 563974735#10 563974733#1 995793692#0 995793692#1 995793692#2 995793692#3 995793692#4 995793692#5 995793692#6 995793692#7 563975284#0 614072000 563679821#0 563679821#1 -235103610#3 423553702#0 423553702#1"/>
    </vehicle>
    <vehicle id="29" type="passenger" depart="29.00" departLane="best" departPos="random" departSpeed="max">
        <route edges="-24583495#2 -24583495#1 -24583495#0 24583494 24583337#5 24583337#6 24583337#7 24583337#8 24583337#9 24583337#10 24583337#11 24583337#0 24583337#1 24583335#0 24583335#1 24583335#2 24583335#4 24583335#5 447141147#2 24583324#0 24583324#1 590609994#0 590609994#1 717907807#0 717907807#1 717907807#2 717907807#3 717907807#4 717907807#5 717907807#6 24583320 570526051 447141152 570526053 447141150#0 111695525#0 44277690#1 779077038#0 779077038#1 1072967425#1"/>
    </vehicle>
    <vehicle id="30" type="passenger" depart="30.00" departLane="best" departPos="random" departSpeed="max">
        <route edges="998790354#7 998790352#0 998790352#1 116046167#1 116046167#2 116046167#3 116046167#5 116046167#6 116046167#7 116046167#8 995793691 995793692#0 995793692#1 995793692#2 995793692#3 995793692#4 995793692#5 995793692#6 995793692#7 563975284#0 563974730#0 563974730#1 563974730#2 563974730#3 563974730#4 563974730#5 996679779#0 996679779#1 996679779#2 996679779#3 996679779#4 996679779#5 996679779#6 996679779#7 447141147#0 447141147#1 447141147#2 758753883 1248777180#0 778199266#0 778199266#1 778199266#2 1064518284 447141138#0 447141138#1 611866597 24584390#0 24584390#1 24584389#0 24584389#1 24584389#2 24584389#3 782774053 722082950 570413589#0 570413589#1 570413589#2 447141139 447141140#0 447141140#1 447141140#2 24584377#0 24584377#1 24584377#2 24584377#3"/>
    </vehicle>
    <vehicle id="31" type="passenger" depart="31.00" departLane="best" departPos="random" departSpeed="max">
        <route edges="24577106#1 24577106#2 24577106#3 998790361 447141132#0 447141132#1 447141132#2 447141132#3 447141132#4 24577096#0 24577096#1 24577096#2 24577096#3 24577096#4 24577096#5 24577096#6 24577096#7 24577096#8 24577096#9 24577096#10 24577096#11 24577096#12 24577096#13 24577096#14 614072000 563679821#0 563679821#1 563679821#2 563679821#3 563679821#4 563679821#5 562340241 562340241-AddedOffRampEdge 562340248#0 562340248#1 564223496#0 564223496#1 578543605 564223494#0 564223494#1 564223494#2 564223494#3 554665389#0 554665389#1 554665389#2 125453679#0 125453679#1 125453679#3 125453679#4 125453679#5 125453679#7 31058508#0 31058508#1 31058508#2 31058508#3 31058508#4 31056646#1 31056646#2 31056646#3 31056646#4 31056646#5 31056646#6 31056644#0"/>
    </vehicle>
    <vehicle id="32" type="passenger" depart="32.00" departLane="best" departPos="random" departSpeed="max">
        <route edges="656933877#0 656933877#1 656933877#2 656933877#3 656933877#4 656933877#5 656933877#6 656933877#7 24577358#0 24577358#1 24577121#4 24577121#5 24577121#6 24577121#7 24577121#8 24577121#9 579781482#0 579781482#1 579781482#2 116046167#1 116046167#2 116046167#3 116046167#5 116046167#6 116046167#7 116046167#8 116046167#9 563679820#0 563679820#1 563679820#2 563679820#3"/>
    </vehicle>
    <vehicle id="33" type="passenger" depart="33.00" departLane="best" departPos="random" departSpeed="max">
        <route edges="-370672197#1 -370672197#0 712992080#1 712992080#2 712992080#3 712992080#4 995113419 570859666#0 570859666#1 570859666#2 446922583#0 446922583#1 722082942 447141131#0 447141131#1 720546573#0 720546573#1 720546573#2 720546573#3 720546573#4 720546573#5 720546573#6 -1121142413#4 -1121142414 -1121142413#0"/>
    </vehicle>
    <vehicle id="34" type="passenger" depart="34.00" departLane="best" departPos="random" departSpeed="max">
        <route edges="-712992080#2 -712992080#1 712992080#1 712992080#2 712992080#3 712992080#4 995113419 570859666#0 570859666#1 570859666#2 446922583#0 446922583#1 722082942 447141131#0 447141131#1 447141131#2 1076627689#0 1076627689#1 1076627690 562439576 996679781#0 80499778#1 80499778#2 80499778#3 80499778#4 80499778#5 80499778#6 562340247#0 562340247#1 562340247#2 562340247#3 562340247#5 562340245 23133709#0 23133709#1 23133709#2 23133709#3 23133709#4 23133709#5 562340241 562340241-AddedOffRampEdge 562340248#0 562340248#1 564223496#0 564223496#1 24583332#0 24583332#1 24583332#3 -612734121#2 -612734121#1 -612734121#0 24583488#6 -612734125"/>
    </vehicle>
    <vehicle id="35" type="passenger" depart="35.00" departLane="best" departPos="random" departSpeed="max">
        <route edges="-293153141#1 293153141#1 293153156#0 -993538737 38235349#3 319329101#9 319329101#10 80926759#4 80926759#4-AddedOffRampEdge 80926759#5 80926759#6-AddedOnRampEdge 80926759#6 80926759#7 578543606 730111073#0 730111073#1 730111073#2 446922590#0 446922590#1 446922590#2 446922590#3 446922590#4 446922590#5 446922590#6 596346055#0 596346055#1 1252826818#1 1252826818#2-AddedOnRampEdge 1252826818#2 1252826818#3 1252826818#4 1252826818#5 38699586#0 38699586#1 265975963#1 265975963#2 265975963#3 -1306141818#1 -1306141818#0 80418139#0 80418139#1"/>
    </vehicle>
    <vehicle id="36" type="passenger" depart="36.00" departLane="best" departPos="random" departSpeed="max">
        <route edges="700293880#1 700293880#2 553590474#4 686814926#0 -74851423#1 -74851423#0 291266019#0 291266019#1 1312753970#0 1312753970#2 1312753971#0 1312753971#1 553596950 74851427 164782722 -265975966#4 -750482273#11 -750482273#10 -750482273#8 -750482273#7 -750482273#6 -750482273#5 -750482273#4 -750482273#3 -750482273#2 -750482273#1"/>
    </vehicle>
    <vehicle id="37" type="passenger" depart="37.00" departLane="best" departPos="random" departSpeed="max">
        <route edges="24584390#1 24584389#0 24584389#1 24584389#2 24584389#3 782774053 722082950 570413589#0 570413589#1 570413589#2 447141139 447141140#0 447141140#1 447141140#2 24584377#0 24584377#1 24584377#2 24584377#3 24584377#4 24584377#5 24584377#6 24584377#7 24584377#8 24584377#9 447141152 570526053 447141150#0 447141150#1 447141149#0 447141149#1 447141149#2 1219699878#0 1219699878#1 1219699878#2 24583330#0 24583330#1 24583330#2 24583330#3 24583330#4 24583330#5 24583330#6 24583330#7 24583330#8 615556515#0 615556515#1 564223494#0 564223494#1 564223494#2 564223494#3 554665389#0 554665389#1 554665389#2 578543604 578543606 80414533#0 80414533#1 80414533#2 80414533#3 80414533#4 80414533#5 267447262#0 1310427872#0 -360250362#3 1076827648"/>
    </vehicle>
    <vehicle id="38" type="passenger" depart="38.00" departLane="best" departPos="random" departSpeed="max">
        <route edges="74851424#0 -1277942000#8 -1277942000#7 -1277942000#5 -1277942000#4 -1277942000#3 1277942000#3 1277942000#4 1277942000#5 1277942000#7 1277942000#8 1277941999#1 24583333#4 24583333#5 24583333#6 446922584#0 446922584#1 446922586#0 446922586#1 995113415 570859666#0 570859666#1 570859666#2 446922583#0 446922583#1 722082942 447141131#0 447141131#1 447141131#2 1076627689#0 1076627689#1 1076627690 562439576 996679781#0 80499778#1 80499778#2 80499778#3 80499778#4 80499778#5 80499778#6 562340247#0 562340247#1 562340247#2 562340247#3 562340247#5 562340245 23133709#0 23133709#1 23133709#2 23133709#3 23133709#4 23133709#5 562340241 562340241-AddedOffRampEdge 562340248#0 562340248#1 564223496#0 564223496#1 24583332#0 24583332#1 24583332#3 24583332#4 24583332#5 24583332#6 24583332#7 24583332#8 24583332#9 24583332#10 24583332#11 24583332#12 1219699876#0 1219699876#1 1219699876#2 1219699876#3"/>
    </vehicle>