<?xml version='1.0' encoding='utf-8'?>
<routes><vType id="car" accel="2.0" decel="4.5" sigma="0.5" length="5" minGap="2.5" maxSpeed="25" /><vehicle id="0" type="car" depart="0"><route edges="-24582918#3 -24582918#2 -24582918#1 -24582918#0 24582921#10 24582921#11 572511732#8 446922591 760480736 562340247#0 562340247#1 562340247#2 562340247#3 562340247#5 562340245 23133709#0 23133709#1 23133709#2 23133709#3 23133709#4 23133709#5 562340241 562340241-AddedOffRampEdge 562340248#0 391534135#0" /></vehicle><vehicle id="1" type="car" depart="1"><route edges="596373338#5 596373338#6 596373338#7 596373338#8 596373338#9 596373338#10 596373338#11 596373338#12 596373338#13 562340239 722082943#0 722082943#1 23134734#0 23134734#1 23134734#2 23134734#3 710645770 447141133#0 447141133#1 722082944 447141132#0 447141132#1 370545701#0 370545701#1 370545701#2 24583337#9 24583337#10 24583337#11 24583337#0 24583337#1 24583335#0 24583335#1 24583335#2 24583335#4 24583335#5 447141147#2 24583324#0 24583324#1 590609994#0 590609994#1 717907807#0 717907807#1 717907807#2 717907807#3 717907807#4 717907807#5 717907807#6 24583320 570526051 447141152 570526053 447141150#0 111695525#0 44277690#1 779077038#0 779077038#1 779077038#2 779077038#4 779077038#5 779077038#6 -1072933745 -700305759#0 31056642#3 590609996 779129470 80926788#0 80926788#1 -169081335#4 -1184932071#2 -1184932071#1 -1184932071#0 -169081336#0 80926788#4 80926788#5 80926788#6" /></vehicle><vehicle id="2" type="car" depart="2"><route edges="998790357#0 24577118#0 24577118#1 24577118#2 24577118#4 24577118#5 24577118#6 24577118#7 24577118#8 24577118#9 24577118#11 -995792406#3 -995792406#2 -995792406#1 -995792406#0 995792405 -24583586#1 995793692#2 995793692#3 995793692#4 995793692#5 995793692#6 995793692#7 563975284#0 614072000 563679821#0 563679821#1 563679821#2 563679821#3 563679821#4 563679821#5 24577480#0 24577480#1 24577480#2 24577480#3 24577480#4 23133486#9 23133486#10 23133486#11 24577488#0 24577488#1 24577488#2 24577488#3 24577488#4 24577488#5" /></vehicle><vehicle id="3" type="car" depart="3"><route edges="1121186669#2 998790353#0 998790353#1 116046167#1 116046167#2 116046167#3 116046167#5 116046167#6 116046167#7 116046167#8 116046167#9 579781481#1 579781481#2 579781481#3 579781481#4 579781481#5 579781481#6 579781481#7 579781481#8 579781481#9 579781481#10 579781481#11 570616027 23133709#0 23133709#1 23133709#2 23133709#3 23133709#4 23133709#5 24577480#0 24577480#1 24577480#2 24577480#3 24577480#4 23133486#9 23133486#10 23133486#11 23133486#12 23133486#13 23133486#14 23133486#15 23133486#16 24577487#0 24577487#1 24577487#2 24577487#3 24577487#4 125453679#0 125453679#1 -319329101#10 -319329101#9 123401419#0 123401419#1 484725394" /></vehicle><vehicle id="4" type="car" depart="4"><route edges="-1122030700 -1122030698#1 -1122030698#0 -1122030697#0 -775258786#0 -44263457#0 -1145143266#10 -1145143266#9 -1145143266#8 -1145143266#7 -1145143266#6 -1145143266#5 -1145143266#4 -1145143266#3 -1145143266#1 -686792710#1 -686792710#0 1386084973 1285005493#10 31056642#0 31056642#1 31056642#2 700305759#0 700305759#1 80926777#2 80926777#3" /></vehicle><vehicle id="5" type="car" depart="5"><route edges="-142865883#8 -142865883#7 -142865883#6 -142865883#5 -142865883#4 553590476#0 -1121191978#1 -1121191978#0 -1307182526 -291266017#9 -291266017#8 -291266017#7 -291266017#6 -291266017#5 -291266017#4 -291266017#3 -291266017#2 -291266017#1 -291266017#0 291266019#1 1312753970#0 1312753970#2 80499778#1 80499778#2 370761286#1 370761286#2 370761286#3 370761286#4 370761286#5 370761286#6 370761286#7 370761286#8 1000448884#0 1000448884#1 1000448884#2 1000448884#3 1000448884#4 164675827#7 80499778#6 562340247#0 562340247#1 562340247#2 562340247#3 562340247#5 562340245 23133709#0 23133709#1 23133709#2 23133709#3 23133709#4 23133709#5 24577480#0 24577480#1 24577480#2 24577480#3 24577480#4 23133486#9 23133486#10 23133486#11 23133486#12 23133486#13 23133486#14 23133486#15 23133486#16 24577487#0 24577487#1 24577487#2 24577487#3 24577487#4 578543604 578543606 730111073#0 730111073#1 730111073#2 446922590#0 446922590#1" /></vehicle><vehicle id="6" type="car" depart="6"><route edges="267447262#13 267447262#14 267447262#15 1343796256#0 1343796256#1 1343796256#2 125453679#7 31058508#0" /></vehicle><vehicle id="7" type="car" depart="7"><route edges="38699591#11 686914248 28103794#5-AddedOnRampEdge 28103794#5 28103794#6 572511732#0 572511732#1 572511732#2 572511732#3 572511732#4 572511732#5 572511732#6 572511732#7 572511732#8 578543603#0 578543603#1 578543603#2 578543603#3 578543603#4 578543603#5 996679780#2 563974735#0 563974735#1 24583592#0 24583592#1 24583592#2 24583592#3 24583592#4 24583592#5 24583593#2 24583593#3 24583593#4 24583593#5 24583593#6 24583593#7 24583593#8 24583593#10 24583593#11 24577361#3" /></vehicle><vehicle id="8" type="car" depart="8"><route edges="370672194#6 370672194#7 370672194#8 370672194#10 370672194#11 370672194#12 370672194#13 370672194#14 -24583593#8 -24583593#7 -24583593#6 -24583593#5 -998790358#17 -998790358#16 -998790358#15 -998790358#14 -998790358#12 -998790358#11 -998790358#10 -998790358#9 -998790358#7 -998790358#6 -998790358#5 -998790358#4 -998790358#3 -998790358#2 -998790358#1 -998790358#0 998790353#0 998790353#1 998790353#3 998790353#4 -998790354#7 -998790354#5 -998790354#4 -998790354#3 -998790354#2 -998790354#1 -998790354#0 998790357#0 -998790356#8 -998790356#7 -998790356#6 -998790356#5 -998790356#4 -998790356#3 -998790356#2 -998790356#1 -998790356#0 998790360 23134734#0 23134734#1 23134734#2 23134734#3 710645770 447141133#0 447141133#1 722082944 447141132#0 447141132#1 370545701#0 370545701#1 370545701#2 24583337#9 24583337#10 24583337#11 24583337#0 24583337#1 24583335#0 24583335#1 24583335#2 24583335#4 24583335#5 447141147#2 24583324#0 24583324#1 590609994#0 590609994#1 717907807#0 717907807#1 717907807#2 717907807#3 717907807#4 717907807#5 717907807#6 24583320 570526051 447141152 570526053 447141150#0 447141150#1 447141149#0 447141149#1" /></vehicle><vehicle id="9" type="car" depart="9"><route edges="1312753971#0 1312753971#1 611866602#0 24582921#0 24582921#2 24582921#3 24582921#4 24582921#5 24582921#6 24582921#7 24582921#8 -1374634869#2 -423563749#3 -423563749#2 -423563749#1 -423563749#0 -24582919#4 1119548738#0" /></vehicle><vehicle id="10" type="car" depart="10"><route edges="24584375#4 24584375#5 24584375#6 24584377#2 24584377#3 24584377#4 24584377#5 24584377#6 24584377#7 24584377#8 24584377#9 447141152 570526053 447141150#0 447141150#1 447141149#0 447141149#1 447141149#2 1219699878#0 1219699878#1 1219699878#2 24583330#0 24583330#1 24583330#2 24583330#3 24583330#4 24583330#5 -24584374#6 1122038572#0 1122038572#1 103176793#4 24583330#7 24583330#8 615556515#0 615556515#1 564223494#0 564223494#1 564223494#2 564223494#3 554665389#0 554665389#1 554665389#2 578543604 578543606 730111073#0 730111073#1 730111073#2 446922590#0 446922590#1 446922590#2 446922590#3 446922590#4 446922590#5 446922590#6 596346055#0 596346055#1 596346055#3 708765155 760014495#0 760014495#1 80418105" /></vehicle><vehicle id="11" type="car" depart="11"><route edges="370761286#6 370761286#7 370761286#8 1000448884#0 1000448884#1 1000448884#2 1000448884#3 1000448884#4 164675827#7 80499778#6 562340247#0 562340247#1 562340247#2 562340247#3 562340247#5 562340245 23133709#0 23133709#1 23133709#2 23133709#3 23133709#4 23133709#5 562340241 562340241-AddedOffRampEdge 562340248#0 562340248#1 564223496#0 564223496#1 24583332#0 24583332#1 615556516 44263461#0 44263461#1 44263461#2 44263461#3 44263461#4 44263461#5 44263461#6 -44263457#7 -44263457#6 -44263457#5 -44263457#4 -44263457#3 -44263457#2 -44263457#0 -1145143266#10 -1145143266#9 -1145143266#8 -1145143266#7 -1145143266#6 -1145143266#5 -1145143266#4" /></vehicle><vehicle id="12" type="car" depart="12"><route edges="1145143268#1 31056642#2 31056642#3 590609996 779129470 590610031#0 590610031#1 -1386086511#1 -1072933744#1 -1072933744#0 -1386084973 686792710#0 686792710#1 1145143266#1 1145143266#3 1145143266#4 1145143266#5 1145143266#6 1145143266#7 1145143266#8 1145143266#9 1145143266#10 44263457#0 44263457#2 44263457#3 44263457#4 44263457#5 44263457#6 44263457#7 -44263461#6 -44263461#5 -44263461#4 -44263461#3 -44263461#2 -44263461#1 -44263461#0 -615556516 1074774612#0 1074774612#1 -612734123#1 -612734123#0 -612734124#0 -24583488#1 -24583488#0 997761546#1 570616029#0 570616028#1 1278775921#0 -103176785#2 223906999#0 223906999#1 563679821#5 24577480#0 24577480#1 24577480#2 23133600#0 23133600#1 23133600#2 23133600#3 1375201075 760480736 562340247#0 562340247#1 562340247#2 562340247#3 562340247#5 562340245 23133709#0 23133709#1 23133709#2" /></vehicle><vehicle id="13" type="car" depart="13"><route edges="-1076782193#1 154356520#4 154356520#5 686920282 665921720 665921719 665921717 1312753970#0 1312753970#2 80499778#1 80499778#2 370761286#1 370761286#2 370761286#3 370761286#4 370761286#5 370761286#6 370761286#7 370761286#8 1000448884#0 1000448884#1 1000448884#2 1000448884#3 1000448884#4 164675827#7 80499778#6 562340247#0 562340247#1 562340247#2 562340247#3 562340247#5 562340245 23133709#0 23133709#1 23133709#2 23133709#3 23133709#4 23133709#5 24577480#0 24577480#1 24577480#2 24577480#3 24577480#4 23133486#9 23133486#10 23133486#11 23133486#12 23133486#13 23133486#14 23133486#15 23133486#16 24577487#0 24577487#1 24577487#2 24577487#3 24577487#4 578543604 578543606" /></vehicle><vehicle id="14" type="car" depart="14"><route edges="-1074774613 103176793#1 103176793#2 993539970 -24584374#3 -993539971#3 -993539971#2 -993539971#1 -993539971#0 1219699881#2 1219699881#3 1219699881#4 1219699876#0 1219699876#1 1219699876#2 1219699876#3" /></vehicle><vehicle id="15" type="car" depart="15"><route edges="-686792699#1 -686792699#0 1145143266#10 44263457#0 44263457#2 44263457#3 44263457#4 44263457#5 44263457#6 44263457#7 -44263461#6 -44263461#5 -44263461#4 -44263461#3 -44263461#2 -44263461#1 -44263461#0 -615556516 1074774612#0 1074774612#1 -612734123#1 -612734123#0 -612734124#0 -24583488#1 -24583488#0 997761546#1 570616029#0 570616028#1 1278775921#0 -103176785#2 -103176785#1 686657381 -423553702#0 -235103610#2 -442157836 74851428#3 74851428#4 74851428#4-AddedOffRampEdge 74851428#5 563791811#1 563791811#2 563791811#3 563791811#4 563791811#5 563791811#6 563791811#7 563679836#0 563679836#1 563679836#2 563679836#3 563679836#4 563679836#5 563679836#6 563679836#7 563679836#8 563679836#9 563679836#10 563679836#11 563679836#12 563679836#13 563679836#14 563679836#15 1242128092#1 1242128093 370672194#0 370672194#1 370672194#2 370672194#3 370672194#4 370672194#5 370672194#6 370672194#7 370672194#8 370672194#10 370672194#11 370672194#12" /></vehicle><vehicle id="16" type="car" depart="16"><route edges="-1122230049#1 -1122230049#0 -24583768#2 -24583768#0 24583337#10 24583337#11 24583337#0 24583337#1 24583337#2 24583337#3 24583493 24583495#0 24583495#1 24583495#2 24583495#3 24583495#4 24583495#5 24583495#6 24583495#8 24583495#9 24583495#10 563974730#4 563974730#5 24583327#13 997761545-AddedOnRampEdge 997761545 612750030#0 612750030#1 997761546#0 24583488#0 24583488#1 612734124#0 612734123#0 612734123#1 -1074774612#1 -1074774612#0 615556515#0 615556515#1 564223494#0 564223494#1 564223494#2 564223494#3 31056641 1393463455#0 1393463455#1 1393463455#2 615556519#0" /></vehicle><vehicle id="17" type="car" depart="17"><route edges="998790359 998790356#0 998790356#1 998790356#2 998790356#3 998790356#4 998790356#5 998790356#6 998790356#7 998790356#8 998790355#1 998790354#0 998790354#1 998790354#2 998790354#3 998790354#4 998790354#5 998790354#7 998790352#0 998790352#1 998790352#3 998790352#4 998790358#0 998790358#1 998790358#2 998790358#3 998790358#4 998790358#5 998790358#6 998790358#7 998790358#9 998790358#10 998790358#11 998790358#12 998790358#14 998790358#15 998790358#16 998790358#17 998790358#18 998790358#19 998790351#0 998790351#1 998790351#2 447141131#0 447141131#1 447141131#2 446922589 24583333#0 24583333#1 74851424#0 -1277942000#8 -1277942000#7 -1277942000#5 -1277942000#4 -1277942000#3 -1277942000#1 -1277942000#0 1277941998#1 74851429#4 662886376#0 -74851423#9 -74851423#8 -74851423#7 -74851423#6 -74851423#5" /></vehicle><vehicle id="18" type="car" depart="18"><route edges="1386106195#1 1386106195#2 1386106195#3 1386106195#4 1386106195#5 1386106195#6 -424007961#1 169081336#0 169081336#1 169081336#2 169081336#3 169081336#4 169081336#5 1072922044#0 1072922044#1 1072922044#2" /></vehicle><vehicle id="19" type="car" depart="19"><route edges="998790356#0 998790356#1 998790356#2 998790356#3 998790356#4 998790356#5 998790356#6 998790356#7 998790356#8 24577118#0 24577118#1 24577118#2 24577118#4 24577118#5 24577118#6 24577118#7 24577118#8 24577118#9 24577118#11 -995792406#3 -995792406#2 -995792406#1 -995792406#0 995792405 -24583586#1 995793692#2 995793692#3 995793692#4 995793692#5 995793692#6 995793692#7 563975284#0 614072000 563679821#0 563679821#1 563679821#2 563679821#3 563679821#4 563679821#5 24577480#0 24577480#1 24577480#2 24577480#3 24577480#4 23133486#9 23133486#10 23133486#11 23133486#12 23133486#13 23133486#14 23133486#15 23133486#16 24577487#0 24577487#1 24577487#2 24577487#3 24577487#4 578543604 578543606 80414533#0 80414533#1 -154090267#3 -154090267#2 -154090267#1 -154090267#0 -686878276 293153163#0 293153145#0 293153145#1 293153141#1" /></vehicle><vehicle id="20" type="car" depart="20"><route edges="24577106#0 -24583768#3 -24583768#2 -24583768#0 24583337#10 24583337#11 24583337#0 24583337#1 24583335#0 24583335#1 24583335#2 24583335#4 24583335#5 447141147#2 24583324#0 24583324#1 590609994#0 590609994#1 717907807#0 717907807#1 717907807#2 717907807#3 717907807#4 717907807#5 717907807#6 24583320 570526051 447141152 570526053 447141150#0 111695525#0 44277690#1 779077038#0 779077038#1 779077038#2 779077038#4 779077038#5 779077038#6 -1072933745 -700305759#0 31056642#3 590609996 779129470 80926788#0 80926788#1 -169081335#4 -1184932071#2 -1184932071#1 -1184932071#0 169081336#1 169081336#2 169081336#3 169081336#4 169081336#5 1072922044#0" /></vehicle><vehicle id="21" type="car" depart="21"><route edges="-998790356#3 -998790356#2 -998790356#1 -998790356#0 998790360 23134734#0 23134734#1 23134734#2 23134734#3 710645770 447141133#0 447141133#1 722082944 447141132#0 447141132#1 370545701#0 370545701#1 370545701#2 24583337#9 24583337#10 24583337#11 24583337#0 24583337#1" /></vehicle><vehicle id="22" type="car" depart="22"><route edges="563679820#9 563679820#11 563679820#12 563679820#13 563679820#14 563679820#15 1312753971#0 1312753971#1 553596950 74851427 164782722 80418139#0 80418139#1 164782727#0" /></vehicle><vehicle id="23" type="car" depart="23"><route edges="23133486#9 23133486#10 23133486#11 24577488#0 24577488#1 24577488#2 24577488#3 24577488#4 24577488#5 24577488#6 24577488#7 24583332#0 24583332#1 1074774612#0 1074774611" /></vehicle><vehicle id="24" type="car" depart="24"><route edges="998790358#7 998790358#9 998790358#10 998790358#11 998790358#12 998790358#14 998790358#15 998790358#16 998790358#17 998790358#18 998790358#19 998790351#0 998790351#1 998790351#2 447141131#0 447141131#1 447141131#2 446922589 24583333#0 24583333#1 74851424#0 -1277942000#8 -1277942000#7 -1277942000#5 -1277942000#4 -1277942000#3 -1277942000#1 -142865883#2 -1121191979#2 -1307182526 -291266017#9 -291266017#8 -291266017#7 -291266017#6 -291266017#5 -291266017#4 -291266017#3 -291266017#2 -291266017#1 -291266017#0 291266019#1 1312753970#0" /></vehicle><vehicle id="25" type="car" depart="25"><route edges="28103794#5 28103794#6 572511732#0 572511732#1 572511732#2 572511732#3 572511732#4 572511732#5 572511732#6 572511732#7 572511732#8 446922591 760480736 562340247#0 562340247#1 562340247#2 562340247#3 562340247#5 562340245 23133709#0 23133709#1 23133709#2 23133709#3 23133709#4 596373346 596373332#0 596373332#1 596373332#2 596373332#3 596373332#4 596373332#5 614071999 614071995 596373338#0 596373338#1 596373338#2 596373338#4 596373338#5 596373338#6 596373338#7 596373338#8 596373338#9 596373338#10 596373338#11 596373338#12 596373338#13 562340239 722082943#0 722082943#1" /></vehicle><vehicle id="26" type="car" depart="26"><route edges="-423618440#2 -423618440#1 -423618440#0 31056646#3 423618426#0 423618426#1 -1072922042#1 -1072922042#0 1253490936#1 -1072922044#0 -169081336#5 -169081336#4 -169081336#3 -169081336#2 -169081336#1 -169081336#0 424007961#1 -1386106195#6 -1386106195#5 -1386106195#4 -1386106195#3 -1386106195#2 -1386106195#1 1072914443#0 1072914443#1 1072914443#2 -311994765#0 311994767 -24584373#2 80926759#4 80926759#4-AddedOffRampEdge 80926759#5 80926759#6-AddedOnRampEdge 80926759#6 80926759#7 578543606 730111073#0 730111073#1 730111073#2 446922590#0 446922590#1 24577486#0 24577486#1 23133600#12 23133600#13 24577487#2" /></vehicle><vehicle id="27" type="car" depart="27"><route edges="24583488#1 612734124#0 612734123#0 612734123#1 -1074774612#1 -1074774612#0 615556516 44263461#0 44263461#1 44263461#2 44263461#3 44263461#4 44263461#5 44263461#6 -44263457#7 -44263457#6 -44263457#5 -44263457#4 -44263457#3 -44263457#2 -44263457#0 -1145143266#10 -1145143266#9 -1145143266#8 -1145143266#7 -1145143266#6 -1145143266#5 -1145143266#4 -1145143266#3 -1145143266#1 -686792710#1 -686792710#0 1386084973 1285005493#10 31056642#0 31056642#1 31056642#2 700305759#0 700305759#1 80926777#2 80926777#3" /></vehicle><vehicle id="28" type="car" depart="28"><route edges="1000448884#1 1000448884#2 1000448884#3 1000448884#4 164675827#7 80499778#6 562340247#0 562340247#1" /></vehicle><vehicle id="29" type="car" depart="29"><route edges="1306148229#7 1306148229#8 1306148229#9 656933874 446922583#1 722082942 447141131#0 447141131#1 447141131#2 1076627689#0 1076627689#1 1076627690 562439576 996679781#0 1312753971#0 1312753971#1 553596950 74851427 164782722 1306141818#0 1306141818#1 265975963#0 265975963#1 38699585#0 -80418131#3 -80418131#2 993539965#0 993539965#1" /></vehicle><vehicle id="30" type="car" depart="30"><route edges="-24584374#0 1219699881#1 1219699881#2 1219699881#3 1219699881#4 24583332#14 24583332#16 24583332#17 554665390 24583321#0 24583321#1 24583321#2 997761553 997761552#0 997761552#1 994825990#0 994825990#1 994825990#2 447141148 572511731 447141147#0 24583334#0 663858577#1" /></vehicle><vehicle id="31" type="car" depart="31"><route edges="80926777#1 -700305759#1 -700305759#0 31056642#3 590609996 779129470 80926788#0 80926788#1 -169081335#4 -1184932071#2 -1184932071#1 -1184932071#0 -169081336#0 80926788#4 80926788#5 80926788#6 80926788#7 463699077#0 1331524579#0 1331524579#1 1394089479 1394089480 -1210584097 -38235302#3 -38235302#2 120287360" /></vehicle><vehicle id="32" type="car" depart="32"><route edges="-423563749#2 -423563749#1 -423563749#0 -24582919#4 -24582919#3 -24582919#2 -24582919#1 1153925787#0 1153925787#1 1153925787#2 1153925787#3 1153925787#4 74851423#0 74851423#1 74851423#2 74851423#3 74851423#4 74851423#5 74851423#6 74851423#7 74851423#8 74851423#9 662886374#1 74851429#6 74851429#0 74851429#1 74851429#2 662886372#0 1277942000#0 1277942000#1 1277942000#3 1277942000#4 1277942000#5 1277942000#7 1277942000#8 1277941999#1 24583333#4 24583333#5 24583333#6 446922584#0 446922584#1 446922586#0" /></vehicle><vehicle id="33" type="car" depart="33"><route edges="997761552#1 994825990#0 994825990#1 994825990#2 447141148 572511731 447141147#0 24583334#0 663858577#1 24583334#4 24583334#5 24583337#3 24583337#4 24583337#5 24583337#6 24583337#7 24583339#0 24583339#1 24583339#2 24583339#3 24583339#4 24583339#5 24583339#6 447141132#4 596373329 562340239 998790359 998790356#0 998790356#1 998790356#2 998790356#3 998790356#4 998790356#5 998790356#6 998790356#7 998790356#8 998790355#1 998790354#0 998790354#1 998790354#2 998790354#3 998790354#4 998790354#5 998790354#7 998790352#0 998790352#1 998790352#3 998790352#4 998790358#0 998790358#1 998790358#2 998790358#3 998790358#4 998790358#5 998790358#6 998790358#7 998790358#9 998790358#10 998790358#11 998790358#12 998790358#14 998790358#15 998790358#16 998790358#17 998790358#18 998790358#19 998790351#0 998790351#1 998790351#2 447141131#0 447141131#1 447141131#2 446922589 24583333#0 24583333#1 24583333#2 24583333#3 24583333#4 24583333#5 24583333#6 446922584#0 446922584#1 446922586#0 446922586#1 995113415 570859666#0 570859666#1" /></vehicle><vehicle id="34" type="car" depart="34"><route edges="116046167#3 116046167#5 116046167#6 116046167#7 116046167#8 995793691 995793692#0 995793692#1 995793692#2 995793692#3 995793692#4 995793692#5 995793692#6 995793692#7 563975284#0 614072000 563679821#0 563679821#1 -235103610#3 423553702#0 -686657381 103176785#1 103176785#2 1278775921#1 612750032#0 612750032#1 612750032#2 24577478#0-AddedOnRampEdge" /></vehicle><vehicle id="35" type="car" depart="35"><route edges="-612734123#1 -612734123#0 -612734124#0 -24583488#1 -24583488#0 997761546#1 570616029#0 570616028#1 1278775921#0 -103176785#2 -103176785#1 686657381 -423553702#0 -235103610#2 -442157836 74851428#3 74851428#4 74851428#4-AddedOffRampEdge 74851428#5 563791811#1 563791811#2 563791811#3 563791811#4 563791811#5 563791811#6 563791811#7 563679836#0 563679836#1 563679836#2 563679836#3 563679836#4 563679836#5 563679836#6 563679836#7 562499724#0 562499724#1 562499724#2 562499724#3 562499724#4 562499724#5 562499724#6 562499724#7" /></vehicle><vehicle id="36" type="car" depart="36"><route edges="-998790358#16 -998790358#15 -998790358#14 -998790358#12 -998790358#11 -998790358#10 -998790358#9 -998790358#7 -998790358#6 -998790358#5 -998790358#4 -998790358#3 -998790358#2 -998790358#1 -998790358#0 998790353#0 998790353#1 116046167#1 116046167#2 116046167#3 116046167#5 116046167#6 116046167#7 116046167#8 116046167#9 579781481#1 579781481#2 579781481#3 579781481#4 579781481#5 579781481#6 579781481#7 579781481#8 579781481#9 579781481#10 579781481#11 570616027 23133709#0 23133709#1 23133709#2 23133709#3 23133709#4 23133709#5 24577480#0 24577480#1 24577480#2 24577480#3 24577480#4" /></vehicle><vehicle id="37" type="car" depart="37"><route edges="-24583488#8 -24583488#7 -24583488#6 -24583488#5 -24583488#4 -24583488#2 612734124#0 612734123#0 612734123#1 -1074774612#1 -1074774612#0 615556515#0 615556515#1 564223494#0 564223494#1 564223494#2 564223494#3 554665389#0 554665389#1 554665389#2 578543604 578543606 80414533#0 80414533#1" /></vehicle><vehicle id="38" type="car" depart="38"><route edges="446922590#0 446922590#1 446922590#2 446922590#3 446922590#4 446922590#5 446922590#6 596349216 572511732#0 572511732#1 572511732#2 572511732#3 572511732#4 24582917#0 24582917#1 24582917#3 1076510349#0 1076510349#1 1153925787#1 1153925787#2 1153925787#3 1153925787#4 74851423#0 74851423#1 74851423#2 74851423#3 74851423#4 74851423#5 74851423#6 74851423#7 74851423#8 74851423#9 662886374#1 74851429#6 74851429#0 74851429#1 74851429#2 662886372#0 1277942000#0 1277942000#1 1277942000#3 1277942000#4 1277942000#5 1277942000#7 1277942000#8 1277941999#1 24583333#4 24583333#5 24583333#6 446922584#0 446922584#1 446922586#0 995113418 -712992080#4 -712992080#3 -712992080#2 -712992080#1 370672197#0" /></vehicle><vehicle id="39" type="car" depart="39"><route edges="492439726#1 80926759#0 80926759#1 80926759#2 80926759#4 80926759#4-AddedOffRampEdge 80926759#5 80926759#6-AddedOnRampEdge 80926759#6 80926759#7 578543606 730111073#0 730111073#1 730111073#2 446922590#0 446922590#1 446922590#2 446922590#3 446922590#4 446922590#5 446922590#6 596349216 572511732#0 572511732#1 572511732#2 572511732#3 572511732#4 24582917#0 24582917#1 24582917#3 1076510349#0 1076510349#1 1153925787#1 1153925787#2 1153925787#3 1153925787#4 74851423#0 74851423#1 74851423#2 74851423#3 74851423#4 74851423#5 74851423#6 74851423#7 74851423#8 74851423#9 662886374#1 74851429#6 74851429#0 74851429#1 74851429#2 662886372#0 1277942000#0 1277942000#1 1277942000#3 1277942000#4 1277942000#5 1277942000#7 1277942000#8 1277941999#1 24583333#4 24583333#5 24583333#6 446922584#0 446922584#1 446922586#0 446922586#1 995113415 570859666#0 570859666#1 570859666#2 446922583#0 446922583#1 722082942 447141131#0 447141131#1 720546573#0" /></vehicle><vehicle id="40" type="car" depart="40"><route edges="24584380#3 24584380#4 675478334#0 675478334#1 675478334#2 675478334#4 675478334#5 675478334#6 24584377#7 24584377#8 24584377#9 447141152 570526053 447141150#0 447141150#1 447141149#0 447141149#1 447141149#2 1219699878#0 1219699878#1 1219699878#2 1219699876#0 1219699876#1 1219699876#2 1219699876#3 1219699876#4 1219699876#5 1219699876#6 -24584373#10 -24584373#9 -24584373#8 -24584373#7 -24584373#6 -24584373#5 -24584373#4 -24584373#3 -24584373#2 -319329101#10 -319329101#9 -319329101#7 -319329101#6 -319329101#5 -319329101#4 -319329101#3 -319329101#2" /></vehicle><vehicle id="41" type="car" depart="41"><route edges="-1253487123 1074774615#2 488544864#1 488544864#2 488544864#3 24584374#2 -993539971#3 -993539971#2 -993539971#1 -993539971#0 1219699881#2 1219699881#3 1219699881#4 24583332#14 24583332#16 24583332#17 554665390 570526052 24583320 24584375#0 24584375#1" /></vehicle><vehicle id="42" type="car" depart="42"><route edges="-293153163#0 686878276 38235041#7 686925958 80926759#6-AddedOnRampEdge 80926759#6 80926759#7 578543606 730111073#0 730111073#1 730111073#2 446922590#0 446922590#1 24577486#0 24577486#1 24577486#3 24577486#4 23133486#24 23133486#25 23133486#26 23133486#0 23133486#1 23133486#2 23133486#3 23133486#4 23133486#5 24577482#0 24577482#1 24577482#2 1375201075 760480736 562340247#0 562340247#1 562340247#2 562340247#3 562340247#5 562340245 23133709#0 23133709#1 23133709#2 23133709#3 23133709#4 23133709#5 24577480#0 24577480#1" /></vehicle><vehicle id="43" type="car" depart="43"><route edges="1219699878#0 1219699878#1 1219699878#2 24583330#0 24583330#1 24583330#2 24583330#3 24583330#4 24583330#5 -24584374#6 1122038572#0 1122038572#1 103176793#4 24583330#7 24583330#8 615556515#0 615556515#1 564223494#0 564223494#1 564223494#2 564223494#3 554665389#0 554665389#1 554665389#2 578543604 578543606 730111073#0 730111073#1 730111073#2 446922590#0 446922590#1 446922590#2 446922590#3 446922590#4 446922590#5 446922590#6 596346055#0 596346055#1 1252826818#1 1252826818#2-AddedOnRampEdge 1252826818#2 1252826818#3 1252826818#4 1252826818#5 38699591#8 717454380#0 717454379#0 717454379#1 717454379#2 -717454378 38699591#6" /></vehicle><vehicle id="44" type="car" depart="44"><route edges="590609994#1 572511730 447141148 24583327#0 24583327#1 24583327#2 24583327#3 24583327#4 24583327#5 24583327#6 24583327#7 24583327#8 24583327#9 24583327#10 24583327#11 24583327#13 997761545-AddedOnRampEdge 997761545 612750030#0 612750030#1 997761546#0 24583488#0 24583488#1 612734124#0 612734123#0 612734123#1 -1074774612#1 -1074774612#0 615556515#0 615556515#1 564223494#0 564223494#1 564223494#2 564223494#3 554665389#0" /></vehicle><vehicle id="45" type="car" depart="45"><route edges="-773816586#0 44263457#2 44263457#3 44263457#4 44263457#5 44263457#6 44263457#7 -44263461#6 -44263461#5 -44263461#4 -44263461#3 -44263461#2 -44263461#1 -44263461#0 -615556516 615556515#0 615556515#1 564223494#0 564223494#1 564223494#2 564223494#3 554665389#0 554665389#1 554665389#2 578543604 578543606 730111073#0 730111073#1 730111073#2 446922590#0 446922590#1 446922590#2 446922590#3 446922590#4 446922590#5 446922590#6 596349216 572511732#0 572511732#1 572511732#2 572511732#3 24577483#0 23133600#9" /></vehicle><vehicle id="46" type="car" depart="46"><route edges="24583495#4 24583495#5 24583495#6 24583495#8 24583495#9 24583495#10 563974730#4 563974730#5 24583327#13 997761545-AddedOnRampEdge 997761545 612750030#0 612750030#1 997761546#0 24583488#0 24583488#1 612734124#0 612734123#0 612734123#1 -1074774612#1 -1074774612#0 615556515#0 615556515#1 564223494#0 564223494#1 564223494#2 564223494#3 554665389#0 554665389#1 554665389#2 125453679#0 125453679#1 24584373#2 -311994767 311994765#0 -1072914443#2 -1072914443#1 -1072914443#0 1386106195#1 1386106195#2 1386106195#3 1386106195#4 1386106195#5 1386106195#6 424007961#2" /></vehicle><vehicle id="47" type="car" depart="47"><route edges="446922590#4 446922590#5 446922590#6 596349216 572511732#0 572511732#1 572511732#2 572511732#3 572511732#4 572511732#5 572511732#6 572511732#7 572511732#8 578543603#0 578543603#1 578543603#2 578543603#3 578543603#4 578543603#5 523568284#2" /></vehicle><vehicle id="48" type="car" depart="48"><route edges="23133486#6 23133486#7 23133486#8 23133486#9 23133486#10 23133486#11 23133486#12 23133486#13 23133486#14 23133486#15 23133486#16 24577487#0 24577487#1 24577487#2 24577487#3 24577487#4 578543604 578543606 730111073#0 730111073#1 730111073#2 446922590#0 446922590#1 446922590#2 446922590#3 446922590#4 446922590#5 446922590#6 596346055#0 596346055#1 -1306160891#1 -1306160891#0 -746512769#3 -746512769#2" /></vehicle><vehicle id="49" type="car" depart="49"><route edges="-779077038#4 -779077038#2 -1072967425#0 -80926770#1 -80926770#0 111695524#3 44277692#1 44277692#2 447141149#1 447141149#2 665150702 554665390 24583321#0 24583321#1 24583321#2 997761553 997761552#0 997761552#1 994825990#0 994825990#1 994825990#2 447141148 572511731 447141147#0 24583334#0 663858577#1 24583334#4 24583334#5 24583337#3 24583337#4 24583337#5 24583337#6 24583337#7 24583339#0 24583339#1 24583339#2 24583339#3 24583339#4 24583339#5 24583339#6 447141132#4 596373329 562340239 998790359 998790356#0 998790356#1 998790356#2 998790356#3 998790356#4 998790356#5 998790356#6 998790356#7 998790356#8 998790355#1 998790354#0 998790354#1 998790354#2 998790354#3 998790354#4 998790354#5 998790354#7 998790352#0 998790352#1 998790352#3 998790352#4 998790358#0 998790358#1 998790358#2 998790358#3 998790358#4 998790358#5 998790358#6 998790358#7 998790358#9 998790358#10 998790358#11 998790358#12 998790358#14 998790358#15 998790358#16 998790358#17 998790358#18 998790358#19 998790351#0 998790351#1 998790351#2 447141131#0 447141131#1 447141131#2 446922589 24583333#0 24583333#1 24583333#2 24583333#3 24583333#4 24583333#5 24583333#6 446922584#0" /></vehicle><vehicle id="50" type="car" depart="50"><route edges="164782730#0 164782730#1 164782730#2 164782730#3 1312753969#0 13127