<?xml version="1.0" encoding="UTF-8"?>

<!-- generated on 2025-07-29 23:16:27.033227 by randomTrips.py v1_23_1+0000-676720d13f6
<configuration>
    <net-file value="cp2.net.xml"/>
    <route-file value="background.rou.xml"/>
    <prefix value="bg"/>
    <length value="True"/>
    <end value="300.0"/>
    <period value="3.0"/>
</configuration>
-->

<!-- generated on 2025-07-29 23:16:26 by Eclipse SUMO duarouter Version 1.23.1
<duarouterConfiguration xmlns:xsi="http://www.w3.org/2001/XMLSchema-instance" xsi:noNamespaceSchemaLocation="http://sumo.dlr.de/xsd/duarouterConfiguration.xsd">

    <input>
        <net-file value="cp2.net.xml"/>
        <route-files value="trips.trips.xml"/>
    </input>

    <output>
        <output-file value="background.rou.xml"/>
        <alternatives-output value="NUL"/>
    </output>

    <time>
        <begin value="0.0"/>
        <end value="300.0"/>
    </time>

    <report>
        <no-warnings value="true"/>
        <ignore-errors value="true"/>
        <no-step-log value="true"/>
    </report>

</duarouterConfiguration>
-->

<routes xmlns:xsi="http://www.w3.org/2001/XMLSchema-instance" xsi:noNamespaceSchemaLocation="http://sumo.dlr.de/xsd/routes_file.xsd">
    <vehicle id="bg0" depart="0.00">
        <route edges="24584391#1 24584391#2 24584392#0 24584392#1 24584392#2 24584377#1 24584377#2 24584377#3 24584377#4 24584377#5 24584377#6 24584377#7 24584377#8 24584377#9 447141152 570526053 447141150#0 447141150#1 447141149#0 447141149#1 447141149#2 1219699878#0 1219699878#1 1219699878#2 1219699880 24583330#0 24583330#1 24583330#2 24583330#3 24583330#4 24583330#5 24583330#6 24583330#7 24583330#8 615556515#0 615556515#1 615556515#2 564223494#0 564223494#1 564223494#2 564223494#3 554665389#0 554665389#1 554665389#2 578543604 578543606 730111073#0 730111073#1 730111073#2 446922590#0 446922590#1 446922590#2 446922590#3 446922590#4 446922590#5 446922590#6 596346055#0 596346055#1 596346055#2 1252826818#0 1252826818#1 1252826818#2 1252826818#3 1252826818#4 1252826818#5 154356516#0 154356516#1 154356516#2 154356516#3 154356516#4 154356516#5 686771927#0 686771927#1 750482273#5 1076782196#0 -1076782193#1"/>
    </vehicle>
    <vehicle id="bg1" depart="3.00">
        <route edges="-686771927#0 686771927#0 686771927#1 750482273#5 750482273#6 154356520#3 154356520#4 154356520#5 686920282 665921720 665921719 665921717 1312753970#0 1312753970#1 1312753970#2 1312753970#3 996679780#0 996679781#3 80499778#0 80499778#1 80499778#2 80499778#3 80499778#4 80499778#5 80499778#6 562340247#0 562340247#1 562340247#2 562340247#3 562340247#4 562340247#5 562340245 23133709#0 23133709#1 23133709#2 23133709#3 23133709#4 23133709#5 562340241 562340248#0 562340248#1 564223496#0 564223496#1 578543605 564223494#0 564223494#1 564223494#2 564223494#3 554665389#0 554665389#1 554665389#2 125453679#0 125453679#1 125453679#2 -24584373#0 80926759#4 686925959 -38235041#7"/>
    </vehicle>
    <vehicle id="bg2" depart="6.00">
        <route edges="391534135#1 391534135#2 391534135#3 391534135#4 391534135#5 391534135#6 23133486#10 23133486#11 23133486#12 23133486#13 23133486#14 23133486#15 23133486#16 24577487#0 24577487#1 24577487#2 24577487#3 24577487#4 125453679#0 125453679#1 125453679#2 -24584373#0 -319329101#11 -319329101#10 -319329101#9 -319329101#8 -38235349#3 993538737 293153156#1"/>
    </vehicle>
    <vehicle id="bg3" depart="9.00">
        <route edges="717454374 -717454377#1 -717454377#0 1076782188#0 1076782188#1 1076782188#2 1076782188#3 -717454380#1 -717454380#0 38699591#9 38699591#10 38699591#11 38699591#12 28103794#4 28103794#5 28103794#6 572511732#0 572511732#1 572511732#2 572511732#3 24577483#0 24577483#1 24577483#2 23133486#1 23133486#2 23133486#3 23133486#4 23133486#5 23133486#6 23133486#7 23133486#8 23133486#9 23133486#10 23133486#11 23133486#12 23133486#13 23133486#14 23133486#15 23133486#16 24577487#0 24577487#1 24577487#2 24577487#3 24577487#4 578543604 578543606 80414533#0 80414533#1 -154090267#3 -154090267#2 -154090267#1 -154090267#0 -686878276 293153163#0 293153163#1 -1076749550 164698290#4 -993538736#1 -164698290#1"/>
    </vehicle>
    <vehicle id="bg4" depart="12.00">
        <route edges="120287379 38235302#3 1210584097 1067100260#1 1343796256#0 1343796256#1 1343796256#2 492439727#1 492439727#2 492439726#0 492439726#1 80926759#0 80926759#1 80926759#2 80926759#3 80926759#4 80926759#5 80926759#6 80926759#7 578543606 730111073#0 730111073#1 730111073#2 446922590#0 446922590#1 446922590#2 446922590#3 446922590#4 446922590#5 446922590#6 596349216 572511732#0 572511732#1 572511732#2 572511732#3 572511732#4 572511732#5 572511732#6 572511732#7 572511732#8 446922591 760480737 578543603#1 578543603#2 578543603#3 578543603#4 578543603#5 578543603#6 578543603#7 523568284#0 996679780#0 996679780#1 996679780#2 563974735#0 563974735#1 24583592#0 24583592#1 24583592#2 24583592#3 562499724#18 562499724#19 562499724#20 720546573#4 720546573#5 720546573#6 -1121142413#4"/>
    </vehicle>
    <vehicle id="bg5" depart="15.00">
        <route edges="-370765179#0 1138292933#0 1138292933#1 1138292933#2 1138292933#3 1138292933#4 1287065074#0 1287065074#1 1075734524#0 1075734524#1 24583333#6 446922584#0 446922584#1 446922586#0 446922586#1 995113415 570859666#0 570859666#1 570859666#2 446922583#0 446922583#1 722082942 447141131#0 447141131#1 447141131#2 1076627689#0 1076627689#1 1076627690 562439576 996679781#0 996679781#1 996679781#2 996679781#3 665921722 1312753971#0 1312753971#1 553596950 74851427 164782722 80418139#0 80418139#1 80418139#2 596010573#0 164782719#1 80418127#2 164782730#0 164782730#1 164782730#2 164782730#3"/>
    </vehicle>
    <vehicle id="bg6" depart="18.00">
        <route edges="-1076782194#0 1312753969#1 665921720 665921719 665921717 1312753970#0 1312753970#1 1312753970#2 1312753970#3 996679780#0 996679781#3 80499778#0 80499778#1 80499778#2 80499778#3 80499778#4 80499778#5 80499778#6 562340247#0 562340247#1 562340247#2 562340247#3 562340247#4 562340247#5 562340245 23133709#0 23133709#1 23133709#2 23133709#3 23133709#4 23133709#5 562340241 562340248#0 562340248#1 564223496#0 564223496#1 578543605 564223494#0 564223494#1 564223494#2 564223494#3 554665389#0 554665389#1 554665389#2 578543604 578543606 80414533#0 80414533#1 -154090267#3 -154090267#2 -154090267#1 -154090267#0 -686878276 293153163#0 293153163#1 -1076749550 164698290#4 -293153163#4"/>
    </vehicle>
    <vehicle id="bg7" depart="21.00">
        <route edges="265975966#3 265975966#4 1312753969#0 1312753969#1 665921720 665921719 665921717 1312753970#0 1312753970#1 1312753970#2 1312753970#3 996679780#0 996679780#1 996679780#2 563974735#0 563974735#1 563974735#2 563974735#3 563974735#4 563974735#5 563974735#6 563974735#7 563974735#8 563974735#9 563974735#10 563679836#0 563679836#1 563679836#2 563679836#3 563679836#4 563679836#5 563679836#6 563679836#7 563679836#8 563679836#9 563679836#10 563679836#11 563679836#12 563679836#13 563679836#14 563679836#15 1242128092#0 1242128092#1 1242128093 116046166#0 116046166#1 116046166#2 24577121#1 24577121#2 24577360#0 24577360#1 24577360#2 24577360#3"/>
    </vehicle>
    <vehicle id="bg8" depart="24.00">
        <route edges="-371342951#3 -371342951#2 -371342951#1 -371342951#0 371342951#0 371342951#1 371342951#2 371342951#3 1122230043#0 1122230043#1 -24583769#2 -24583769#1 -24583769#0 24583337#1 24583337#2 24583337#3 24583337#4 24583337#5 1374632731 24583491#0 24583491#1"/>
    </vehicle>
    <vehicle id="bg9" depart="27.00">
        <route edges="579781481#9 579781481#10 579781481#11 570616027 23133709#0 23133709#1 23133709#2 23133709#3 23133709#4 23133709#5 562340241 562340248#0 562340248#1 564223496#0 564223496#1 578543605 564223494#0 564223494#1 564223494#2 564223494#3 554665389#0 554665389#1 554665389#2 125453679#0 125453679#1 125453679#2 24584373#1 24584373#2 -311994767 311994765#0 -1072914443#2 -1072914443#1 -1072914437#3 -1072914437#2 -1072914437#1"/>
    </vehicle>
    <vehicle id="bg10" depart="30.00">
        <route edges="578543603#3 578543603#4 578543603#5 578543603#6 578543603#7 523568284#0 996679780#0 996679781#3 80499778#0 80499778#1 80499778#2 80499778#3 80499778#4 80499778#5 80499778#6 562340247#0 562340247#1 562340247#2 562340247#3 562340247#4 562340247#5 562340245 23133709#0 23133709#1 23133709#2 23133709#3 23133709#4 23133709#5 562340241 562340248#0 562340248#1 564223496#0 564223496#1 578543605 564223494#0 564223494#1 564223494#2 564223494#3 554665389#0 554665389#1 554665389#2 125453679#0 125453679#1 125453679#2 -24584373#0 -319329101#11 -319329101#10 -319329101#9 -319329101#8 -38235349#3 -38235349#2 -38235349#1 -38235349#0 -38235351#2 360250361"/>
    </vehicle>
    <vehicle id="bg11" depart="33.00">
        <route edges="-995792406#6 -995792406#5 -995792406#4 -995792406#3 -995792406#2 -995792406#1 -995792406#0 995792405 -24583586#1 995793692#2 995793692#3 995793692#4 995793692#5 995793692#6 995793692#7 563975284#0 563975284#1 712992070 614072000 563679821#0 563679821#1 563679821#2 563679821#3 563679821#4 563679821#5 562340241 562340248#0 562340248#1 564223496#0 564223496#1 578543605 564223494#0 564223494#1 564223494#2 564223494#3 31056641 1393463455#0 1393463455#1 1393463455#2 615556519#0 615556519#1 615556519#2 615556519#3 615556519#4 615556519#5 615556519#6 615556519#7 615556519#8 615556519#9 615556519#10 -24584373#11 -24584373#10 -24584373#9 -24584373#8 -24584373#7 -24584373#6"/>
    </vehicle>
    <vehicle id="bg12" depart="36.00">
        <route edges="80926759#5 80926759#6 80926759#7 578543606 730111073#0 730111073#1 730111073#2 446922590#0 446922590#1 446922590#2 446922590#3 446922590#4 446922590#5 446922590#6 596349216 572511732#0 572511732#1 572511732#2 572511732#3 572511732#4 572511732#5 572511732#6 572511732#7 572511732#8 446922591 760480736 562340247#0 562340247#1 562340247#2 562340247#3 562340247#4 562340247#5 562340243 570616026#0 570616026#1 570616026#2 570616026#3 570616026#4 570616026#5 570616026#6 570616026#7 570616026#8 570616026#9 570616026#10 563975285 563974733#0 563974733#1 995793692#0 995793692#1 24583586#1 995792407 995792406#0 995792406#1 995792406#2 995792406#3 -995792406#3 -995792406#2 -995792406#1 -995792406#0"/>
    </vehicle>
    <vehicle id="bg13" depart="39.00">
        <route edges="-154356520#1 -154356520#0 750482273#2 750482273#3 750482273#4 750482273#5 750482273#6 154356520#3 154356520#4 154356520#5 686920282 665921720 665921719 665921717 1312753970#0 1312753970#1 1312753970#2 1312753970#3 996679780#0 996679781#3 80499778#0 80499778#1 80499778#2 80499778#3 80499778#4 80499778#5 80499778#6 562340247#0 562340247#1 562340247#2 562340247#3 562340247#4 562340247#5 562340245 23133709#0 23133709#1 23133709#2 23133709#3 23133709#4 23133709#5 562340241 562340248#0 562340248#1 564223496#0 564223496#1 578543605 564223494#0 564223494#1 564223494#2 564223494#3 554665389#0 554665389#1 554665389#2 125453679#0 125453679#1 125453679#2 125453679#3 125453679#4 125453679#5 125453679#6 125453679#7 31058508#0 31058508#1 31058508#2 31058508#3 31058508#4 31058508#5 31056646#1 31056646#2 31056646#3 31056646#4 31056646#5 31056646#6 31056644#0 -169081337#1 -169081337#0"/>
    </vehicle>
    <vehicle id="bg14" depart="42.00">
        <route edges="675478334#0 675478334#1 675478334#2 675478334#3 675478334#4 675478334#5 675478334#6 24584377#7 24584377#8 24584377#9 447141152 570526053 447141150#0 447141150#1 447141149#0 447141149#1 447141149#2 665150702 554665390 24583321#0 24583321#1 24583321#2 997761553 997761552#0 997761552#1 -24583487#13 -24583487#12 -24583487#11 -24583487#10 -24583487#9 -24583487#8 -24583487#7 -24583487#6 -24583487#5 -24583487#4 -24583487#3 -24583487#2 -24583487#1 -24583487#0 1066619121#0 1066619121#1 997761547 -1066619123 74851428#0 74851428#1 74851428#2 74851428#3 74851428#4 74851428#5 563791811#0 563791811#1 563791811#2 563791811#3 563791811#4 563791811#5 563791811#6 563791811#7 563791811#8 563679820#0 563679820#1 563679820#2 563679820#3 563679820#4 563679820#5 563679820#6 563679820#7 563679820#8 563679820#9 563679820#10 563679820#11 563679820#12 563679820#13 563679820#14 563679820#15 563679820#16 563679820#17 665921722 523568284#0 996679780#0 996679780#1 996679780#2 563974735#0 563974735#1 24583592#0"/>
    </vehicle>
    <vehicle id="bg16" depart="48.00">
        <route edges="24577360#2 24577360#3 1306148229#1 1306148229#2 1306148229#3 1306148229#4 1306148229#5 1306148229#6 1306148229#7 1306148229#8 1306148229#9 656933874 446922583#1 722082942 447141131#0 447141131#1 447141131#2 446922589 24583333#0 24583333#1 74851424#0 74851424#1 -1277942000#8 -1277942000#7 -1277942000#6 -1277942000#5 -1277942000#4 -1277942000#3 -561672577#1 993539158#1"/>
    </vehicle>
    <vehicle id="bg17" depart="51.00">
        <route edges="1076782194#1 1076782194#2 750482273#9 750482273#10 750482273#11 265975966#4 265975966#5 1306141818#0 1306141818#1 265975963#0 -38699586#1 -38699586#0 -1252826817 38699591#8 38699591#9 38699591#10 38699591#11 38699591#12 28103794#4 28103794#5 28103794#6 572511732#0 572511732#1 572511732#2 572511732#3 24577483#0 24577483#1"/>
    </vehicle>
    <vehicle id="bg18" depart="54.00">
        <route edges="612734125 -24583488#6 -24583488#5 -24583488#4 -24583488#3 -24583488#2 -24583488#1 -24583488#0 997761546#1 570616029#0 570616029#1 564223496#0 564223496#1 578543605 564223494#0 564223494#1 564223494#2 564223494#3 554665389#0 554665389#1 554665389#2 125453679#0 125453679#1 125453679#2 24584373#1 24584373#2 24584373#3 24584373#4 24584373#5 24584373#6 24584373#7 24584373#8 24584373#9"/>
    </vehicle>
    <vehicle id="bg19" depart="57.00">
        <route edges="686914248 28103794#5 28103794#6 572511732#0 572511732#1 572511732#2 572511732#3 572511732#4 572511732#5 572511732#6 572511732#7 572511732#8 446922591 760480736 562340247#0 562340247#1 562340247#2 562340247#3 562340247#4 562340247#5 562340245 23133709#0 23133709#1 23133709#2 23133709#3 23133709#4 596373346 596373332#0 596373332#1 596373332#2 596373332#3 596373332#4 596373332#5 614071999 596373342 563975284#1 563974730#0 563974730#1 563974730#2 -24583491#3 -24583491#2 -24583491#1 -24583491#0 1374632732 24583337#7 24583337#8 24583337#9 24583337#10 24583337#11 24583337#0 24583337#1 24583335#0"/>
    </vehicle>
    <vehicle id="bg20" depart="60.00">
        <route edges="370672197#4 370672197#5 370672197#6 24563436#1 24563436#2 1306148229#0 1306148229#1 1306148229#2 1306148229#3 1306148229#4 1306148229#5 1306148229#6 1306148229#7 1306148229#8 1306148229#9 656933874 446922583#1 722082942 447141131#0 447141131#1 447141131#2 1076627689#0 1076627689#1 1076627690 562439576 996679781#0 996679781#1 996679781#2 996679781#3 665921722 1312753971#0 1312753971#1 553596950 74851427 164782722 1306141818#0 1306141818#1 265975963#0 265975963#1 265975963#2 38699587#0 80418095#0 -1144624113#3"/>
    </vehicle>
    <vehicle id="bg21" depart="63.00">
        <route edges="-38235296#0 1210584097 1067100260#1 1343796256#0 1343796256#1 1343796256#2 44263458#0 44263458#1 44263458#2 44263458#3 44263458#4 44263458#5 44263458#6 44263458#7 590610031#1 590610031#2 31056642#0 31056642#1 31056642#2 700305759#0 -700305759#0"/>
    </vehicle>
    <vehicle id="bg22" depart="66.00">
        <route edges="-1305889560 -123406184#0 -123406178#0 319329101#2 319329101#3 319329101#4 319329101#5 319329101#6 319329101#7 319329101#8 319329101#9 319329101#10 319329101#11 80926759#4 80926759#5 80926759#6 80926759#7 578543606 730111073#0 730111073#1 730111073#2 446922590#0 446922590#1 446922590#2 446922590#3 446922590#4 446922590#5 446922590#6 596346055#0 596346055#1 596346055#2 1252826818#0 1252826818#1 1252826818#2 1252826818#3 1252826818#4 1252826818#5 38699586#0 38699586#1 265975963#1 265975963#2 38699587#0 -38699587#0"/>
    </vehicle>
    <vehicle id="bg24" depart="72.00">
        <route edges="24584385#1 24584385#2 80926764#5 80926764#6 717907807#1 717907807#2 717907807#3 717907807#4 717907807#5 717907807#6 24583320 24584375#0 24584375#1 -24584383#0 -1354558617 -675478334#6 -675478334#5 -675478334#4 -675478334#3 -675478334#2 -1072963716#1 1072978656#1"/>
    </vehicle>
    <vehicle id="bg25" depart="75.00">
        <route edges="1074774615#2 488544864#1 -697766793#3 -697766793#2 -697766793#1 -697766793#0 103176793#3 103176793#4 24583330#7 24583330#8 615556515#0 615556515#1 615556515#2 564223494#0 564223494#1 564223494#2 564223494#3 554665389#0 554665389#1 554665389#2 578543604 578543606 730111073#0 730111073#1 730111073#2 446922590#0 446922590#1 446922590#2 446922590#3 446922590#4 446922590#5 446922590#6 596349216 572511732#0 572511732#1 572511732#2 572511732#3 572511732#4 572511732#5 572511732#6 572511732#7 572511732#8 446922591 760480737 578543603#1 578543603#2 578543603#3 578543603#4 578543603#5 578543603#6 578543603#7 523568284#0 523568284#1 523568284#2 523568284#3 523568284#4 523568284#5 24583333#0 24583333#1 24583333#2 24583333#3 24583333#4 24583333#5 24583333#6 446922584#0 446922584#1 446922586#0 446922586#1 995113415 570859666#0 570859666#1 656933875 656933877#0 656933877#1 656933877#2 656933877#3 656933877#4 656933877#5 656933877#6 656933877#7 656933877#8 656933877#9 656933877#10 656933877#11 656933877#12 656933877#13 656933877#14 656933877#15 656933877#16 656933877#17 370672197#6 -370672196"/>
    </vehicle>
    <vehicle id="bg26" depart="78.00">
        <route edges="-612734126#2 -612734126#1 -612734126#0 -24583488#3 -24583488#2 -24583488#1 -24583488#0 997761546#1 570616029#0 570616029#1 564223496#0 564223496#1 578543605 564223494#0 564223494#1 564223494#2 564223494#3 554665389#0 554665389#1 554665389#2 578543604 578543606 730111073#0 730111073#1 730111073#2 446922590#0 446922590#1 446922590#2 446922590#3 446922590#4 446922590#5 446922590#6 596346055#0 596346055#1 596346055#2 1252826818#0 1252826818#1 1252826818#2 1252826818#3 1252826818#4 1252826818#5 38699586#0 38699586#1 265975963#1 265975963#2 38699587#0 80418095#0 80418095#1"/>
    </vehicle>
    <vehicle id="bg27" depart="81.00">
        <route edges="265975966#0 265975966#1 265975966#2 265975966#3 265975966#4 1312753969#0 1312753969#1 665921720 665921719 665921717 1312753970#0 1312753970#1 1312753970#2 1312753970#3 996679780#0 996679780#1 996679780#2 563974735#0 563974735#1 24583592#0 24583592#1 24583592#2 24583592#3 24583592#4 24583592#5 24583593#2 24583594#0"/>
    </vehicle>
    <vehicle id="bg29" depart="87.00">
        <route edges="-24584374#1 24584374#1 24584374#2 24584374#3 24584374#4 24584374#5 24584374#6 24583330#6 24583330#7 24583330#8 615556515#0 615556515#1 615556515#2 564223494#0 564223494#1 564223494#2 564223494#3 554665389#0 554665389#1 554665389#2 578543604 578543606 730111073#0 730111073#1 730111073#2 446922590#0 446922590#1 446922590#2 446922590#3 446922590#4 446922590#5 446922590#6 596346055#0 596346055#1 596346055#2 1252826818#0 1252826818#1 1252826818#2 1252826818#3 1252826818#4 1252826818#5 38699586#0 38699586#1 265975963#1 265975963#2 265975963#3 -1306141818#1 -1306141818#0 -265975966#5 1312753969#0 1312753969#1 -686920282 -154356520#5 -154356520#4 1076782193#1"/>
    </vehicle>
    <vehicle id="bg30" depart="90.00">
        <route edges="997761544 997761546#0 997761546#1 570616029#0 570616029#1 564223496#0 564223496#1 24583332#0 24583332#1 24583332#2 24583332#3 24583332#4 24583332#5 24583332#6 24583332#7 24583332#8 24583332#9 24583332#10 24583332#11 24583332#12 24583332#13 24583332#14 24583332#15 24583332#16 24583332#17 554665390 570526052 24583320 24584375#0 24584375#1 24584383#1 24584383#2 24584383#3"/>
    </vehicle>
    <vehicle id="bg31" depart="93.00">
        <route edges="24583327#6 24583327#7 24583327#8 24583327#9 24583327#10 24583327#11 24583327#12 24583327#13 997761545 997761544 997761546#0 997761546#1 570616029#0 570616029#1 564223496#0 564223496#1 578543605 564223494#0 564223494#1 564223494#2 564223494#3 554665389#0 554665389#1 554665389#2 125453679#0 125453679#1 125453679#2 125453679#3 125453679#4 125453679#5 125453679#6 125453679#7 31058508#0 31058508#1 31058508#2 31058508#3 31058508#4 31058508#5 31056646#1 31056646#2 31056646#3"/>
    </vehicle>
    <vehicle id="bg32" depart="96.00">
        <route edges="665921717 1312753970#0 1312753970#1 1312753970#2 1312753970#3 996679780#0 996679781#3 80499778#0 80499778#1 80499778#2 80499778#3 80499778#4 80499778#5 80499778#6 562340247#0 562340247#1 562340247#2 562340247#3 562340247#4 562340247#5 562340245 23133709#0 23133709#1 23133709#2 23133709#3 23133709#4 23133709#5 562340241 562340248#0 562340248#1"/>
    </vehicle>
    <vehicle id="bg33" depart="99.00">
        <route edges="-38235296#1 -38235296#0 1210584097 1067100260#1 1343796256#0 1343796256#1 1343796256#2 492439727#1 492439727#2 492439726#0 492439726#1 80926759#0 80926759#1 80926759#2 80926759#3 80926759#4 80926759#5 80926759#6 80926759#7 578543606 730111073#0 730111073#1 730111073#2 446922590#0 446922590#1 446922590#2 446922590#3 446922590#4 446922590#5 446922590#6 596349216 572511732#0 572511732#1 572511732#2 572511732#3 572511732#4 572511732#5 572511732#6 572511732#7 572511732#8 446922591 760480736 562340247#0 562340247#1 562340247#2 562340247#3 562340247#4 562340247#5 562340243 570616026#0 570616026#1 570616026#2 570616026#3 570616026#4 570616026#5 570616026#6 570616026#7 570616026#8 570616026#9 570616026#10 563975285 563679836#0 563679836#1 563679836#2 563679836#3 563679836#4 563679836#5 563679836#6 563679836#7 563679836#8 563679836#9 563679836#10 563679836#11 563679836#12 563679836#13 563679836#14 563679836#15 998790352#3 998790352#4 -1121186669#2 -1121186669#1"/>
    </vehicle>
    <vehicle id="bg34" depart="102.00">
        <route edges="-779077038#4 -1072967424 -80926770#2 -80926770#1 -80926770#0 111695524#2 111695524#3 111695524#4 44277692#0 44277692#1 44277692#2 447141149#1 447141149#2 665150702 554665390 570526052 24583320 24584375#0 24584375#1 -24584383#0 -1354558617 -675478334#6"/>
    </vehicle>
    <vehicle id="bg35" depart="105.00">
        <route edges="-370672194#12 -370672194#11 -370672194#10 -370672194#9 -370672194#8 -370672194#7 -370672194#6 -370672194#5 -370672194#4 -370672194#3 -370672194#2 -370672194#1 -370672194#0 116046166#0 116046166#1 116046166#2 24577121#1 24577121#2 24577121#3 24577121#4 24577121#5 24577121#6 24577121#7 24577121#8 24577121#9 579781482#0 579781482#1 579781482#2 579781482#3 116046167#0 116046167#1 116046167#2 116046167#3 116046167#4 116046167#5 116046167#6 116046167#7 116046167#8 116046167#9 579781481#0 563791811#8 563679820#0 563679820#1 563679820#2 563679820#3 563679820#4 563679820#5 563679820#6 563679820#7 563679820#8 563679820#9 563679820#10 563679820#11 563679820#12 563679820#13 563679820#14 563679820#15 563679820#16 563679820#17 665921722 1312753971#0 1312753971#1 553596950 74851427 164782722 80418139#0 80418139#1"/>
    </vehicle>
    <vehicle id="bg36" depart="108.00">
        <route edges="707566695#0 707566694 -343654534#1 -343654534#0 570616026#8 570616026#9 570616026#10 563975285 563974733#0 579781481#0 579781481#1 579781481#2 579781481#3 579781481#4 579781481#5 579781481#6 579781481#7 579781481#8 579781481#9 579781481#10 579781481#11 570616027 23133709#0 23133709#1 23133709#2 23133709#3 23133709#4 23133709#5 562340241 562340248#0 562340248#1 564223496#0 564223496#1 578543605 564223494#0 564223494#1 564223494#2 564223494#3 31056641 1393463455#0 1393463455#1 1393463455#2 615556519#0 615556519#1 615556519#2 615556519#3 615556519#4 615556519#5 615556519#6 615556519#7 615556519#8 615556519#9 615556519#10 1285005493#0 1285005493#1 1285005493#2 1285005493#3 1285005493#4 1285005493#5 1285005493#6 1285005493#7 1285005493#8 1285005493#9 1285005493#10 31056642#0 31056642#1 31056642#2 700305759#0 1072933745 -700305758#1 -779077038#6 -779077038#5 -779077038#4"/>
    </vehicle>
    <vehicle id="bg37" depart="111.00">
        <route edges="267447262#8 267447262#9 267447262#10 267447262#11 267447262#12 267447262#13 267447262#14 267447262#15 1343796256#0 1343796256#1 1343796256#2 492439727#1 492439727#2 492439726#0 492439726#1 80926759#0 80926759#1 80926759#2 80926759#3 24584373#0 24584373#1 24584373#2 24584373#3 24584373#4 24584373#5 24584373#6 24584373#7 24584373#8 24584373#9 24584373#10 24584373#11 1285005491 44263457#0 44263457#1 775258786#0 1122030697#0 1122030697#1"/>
    </vehicle>
    <vehicle id="bg38" depart="114.00">
        <route edges="74851428#2 74851428#3 74851428#4 74851428#5 563791811#0 563791811#1 563791811#2 563791811#3 563791811#4 563791811#5 563791811#6 563791811#7 563791811#8 563679820#0 563679820#1 563679820#2 563679820#3 563679820#4 563679820#5 563679820#6 563679820#7 563679820#8 563679820#9 563679820#10 563679820#11 563679820#12 563679820#13 563679820#14 563679820#15 563679820#16 563679820#17 665921722 1312753971#0 1312753971#1 553596950 74851427 164782722 1306141818#0 1306141818#1 265975963#0 265975963#1 38699585#0 38699585#1 38699585#2 38699585#3 38699585#4 38699585#5 -80418095#8 1255913759"/>
    </vehicle>
    <vehicle id="bg39" depart="117.00">
        <route edges="-612734126#0 24583488#4 24583488#5 612734121#0 612734121#1 612734121#2 24583332#4 24583332#5 24583332#6 24583332#7 24583332#8 24583332#9 24583332#10 24583332#11 24583332#12 1219699879 24583330#0 24583330#1 24583330#2 24583330#3 24583330#4 24583330#5 -24584374#6 -24584374#5 -24584374#4 -24584374#3 -24584374#2 -488544864#3 -488544864#2"/>
    </vehicle>
    <vehicle id="bg40" depart="120.00">
        <route edges="24583330#7 24583330#8 1078118953 24583332#2 24583332#3 -612734121#2 612734125 612734122 -612734126#1 -612734126#0"/>
    </vehicle>
    <vehicle id="bg41" depart="123.00">
        <route edges="24583495#6 24583495#7 24583495#8 24583495#9 24583495#10 24583495#11 74851428#2 74851428#3 74851428#4 74851428#5 563791811#0 563791811#1 563791811#2 563791811#3 563791811#4 563791811#5 563791811#6 563791811#7 563791811#8 563975285 563679836#0 563679836#1 563679836#2 563679836#3 563679836#4 563679836#5 563679836#6 563679836#7 563679836#8 563679836#9 563679836#10 563679836#11 563679836#12 563679836#13 563679836#14 563679836#15 1242128092#0 1242128092#1 1242128093 116046166#0 116046166#1 116046166#2 24577121#1 24577121#2 24577360#0 24577360#1 24577360#2 24577360#3 1081301864 656933877#8 656933877#9 656933877#10 656933877#11 656933877#12 717512502#0 717512502#1"/>
    </vehicle>
    <vehicle id="bg42" depart="126.00">
        <route edges="1122257058 24584375#4 24584375#5 24584375#6 24584375#7 24584375#8 24584375#9 24584375#10 447141153#0 611866595#0 611866595#1 611866595#2 611866595#3 611866595#4 611866594 611866596#0 611866596#1 1066077570#0 1066077570#1 1066077570#2 447141137#0 1376427375 1287398725#0 1065027421 -371342951#5 -371342951#4 -371342951#3"/>
    </vehicle>
    <vehicle id="bg43" depart="129.00">
        <route edges="998790358#0 -998790358#0 998790353#0 998790353#1 998790353#2 579781482#3 116046167#0 116046167#1 116046167#2 116046167#3 116046167#4 116046167#5 116046167#6 116046167#7 116046167#8 116046167#9 579781481#0 579781481#1 579781481#2 579781481#3 579781481#4 579781481#5 579781481#6 579781481#7 579781481#8 579781481#9 579781481#10 579781481#11 570616027 23133709#0 23133709#1 23133709#2 23133709#3 23133709#4 23133709#5 562340241 562340248#0 562340248#1 564223496#0 564223496#1 578543605 564223494#0 564223494#1 564223494#2 564223494#3 31056641 1393463455#0 1393463455#1 1393463455#2 615556519#0 615556519#1 615556519#2 615556519#3 615556519#4 615556519#5 615556519#6 615556519#7 615556519#8 615556519#9 615556519#10 1285005493#0 1285005493#1 1285005493#2 1285005493#3 1285005493#4 1285005493#5 1285005493#6 1285005493#7 1285005493#8 1285005493#9 1285005493#10 31056642#0 31056642#1 31056642#2 31056642#3 590609996 779129470 80926788#0 80926788#1 -169081335#4 -169081335#3 -169081335#2 169081335#2"/>
    </vehicle>
    <vehicle id="bg44" depart="132.00">
        <route edges="-154090267#2 -154090267#1 -154090267#0 -38235041#6 -38235041#5 -38235041#4 -38235041#3 -38235041#2 -38235041#1 -1076749552 -360250362#1 -360250362#0 38235349#0 38235349#1 38235349#2 38235349#3 319329101#8 319329101#9 319329101#10 319329101#11 24584373#0 24584373#1 24584373#2 24584373#3 24584373#4 24584373#5 24584373#6 24584373#7 24584373#8 24584373#9 24584373#10 24584373#11 1285005493#0 1285005493#1 1285005493#2 1285005493#3 1285005493#4 1285005493#5 1285005493#6 1285005493#7 1285005493#8 -686792709#2 -686792709#1 686792708 -1145143266#1"/>
    </vehicle>
    <vehicle id="bg45" depart="135.00">
        <route edges="-235103516#0 -80926770#0 111695524#2 111695524#3 111695524#4 44277692#0 44277692#1 44277692#2 447141149#1 447141149#2 665150702 554665390 570526052 24583320 570526051 447141152 48964552#0 48964552#1 24584381#0 24584381#1 24584381#2 24584378#1 24584378#2 24584378#3"/>
    </vehicle>
    <vehicle id="bg46" depart="138.00">
        <route edges="563974730#1 563974730#2 563974730#3 24583495#11 74851428#2 74851428#3 74851428#4 74851428#5 563791811#0 563791811#1 563791811#2 563791811#3 563791811#4 563791811#5 563791811#6 563791811#7 563791811#8 563975285 563679836#0 563679836#1 563679836#2 563679836#3 563679836#4 563679836#5 563679836#6 563679836#7 563679836#8 563679836#9 563679836#10 563679836#11 563679836#12 563679836#13 563679836#14 563679836#15 1242128092#0 1242128092#1 1242128093 116046166#0 116046166#1 116046166#2 24577121#1 24577121#2 24577121#3 24577121#4 24577121#5 116046169#0 116046169#1"/>
    </vehicle>
    <vehicle id="bg47" depart="141.00">
        <route edges="-1185904465 -1072914442#0 -24584373#6 -24584373#5 -24584373#4 -24584373#3 -24584373#2 -24584373#1 -24584373#0 80926759#4 80926759#5 80926759#6 80926759#7 578543606 730111073#0 730111073#1 730111073#2 446922590#0 446922590#1 446922590#2 446922590#3 446922590#4 446922590#5 446922590#6 596346055#0 596346055#1 596346055#2 596346055#3 596346055#4 758753899#0 758753899#1 758753899#2 758753899#3 758753899#4 1076782200"/>
    </vehicle>
    <vehicle id="bg48" depart="144.00">