<configuration>
    <input>
        <net-file value="cp2.net.xml"/>
        <route-files value="cp2.rou.xml"/> <!-- Only if you want existing vehicles too -->
    </input>
    <time>
        <begin value="0"/>
        <end value="99999"/> <!-- Give plenty of headroom -->
    </time>
    <processing>
        <step-length value="1.0"/>
    </processing>
</configuration>
