<?xml version="1.0" encoding="UTF-8"?>
<configuration>
    <input>
        <net-file value="cp2.net.xml"/>
        <route-files value="rl_agent.rou.xml,background.rou.xml"/>
    </input>
    <time>
        <begin value="0"/>
        <end value="3600"/>
    </time>
    <processing>
        <step-length value="1.0"/>
    </processing>
</configuration>